# generated using pymatgen
data_Al2Ge2O7
_symmetry_space_group_name_H-M   'P 1'
_cell_length_a   7.27913800
_cell_length_b   7.82435600
_cell_length_c   9.81317432
_cell_angle_alpha   90.00000000
_cell_angle_beta   110.64678566
_cell_angle_gamma   90.00000000
_symmetry_Int_Tables_number   1
_chemical_formula_structural   Al2Ge2O7
_chemical_formula_sum   'Al8 Ge8 O28'
_cell_volume   523.00769540
_cell_formula_units_Z   4
loop_
 _symmetry_equiv_pos_site_id
 _symmetry_equiv_pos_as_xyz
  1  'x, y, z'
loop_
 _atom_type_symbol
 _atom_type_oxidation_number
  Al3+  3.0
  Ge4+  4.0
  O2-  -2.0
loop_
 _atom_site_type_symbol
 _atom_site_label
 _atom_site_symmetry_multiplicity
 _atom_site_fract_x
 _atom_site_fract_y
 _atom_site_fract_z
 _atom_site_occupancy
  Al3+  Al0  1  0.33117800  0.92272100  0.02212600  1
  Al3+  Al1  1  0.66882200  0.92272100  0.47787400  1
  Al3+  Al2  1  0.66882200  0.07727900  0.97787400  1
  Al3+  Al3  1  0.33117800  0.07727900  0.52212600  1
  Al3+  Al4  1  0.83117800  0.42272100  0.02212600  1
  Al3+  Al5  1  0.16882200  0.42272100  0.47787400  1
  Al3+  Al6  1  0.16882200  0.57727900  0.97787400  1
  Al3+  Al7  1  0.83117800  0.57727900  0.52212600  1
  Ge4+  Ge8  1  0.73840950  0.25148050  0.29431800  1
  Ge4+  Ge9  1  0.26159050  0.25148050  0.20568200  1
  Ge4+  Ge10  1  0.26159050  0.74851950  0.70568200  1
  Ge4+  Ge11  1  0.73840950  0.74851950  0.79431800  1
  Ge4+  Ge12  1  0.23840950  0.75148050  0.29431800  1
  Ge4+  Ge13  1  0.76159050  0.75148050  0.20568200  1
  Ge4+  Ge14  1  0.76159050  0.24851950  0.70568200  1
  Ge4+  Ge15  1  0.23840950  0.24851950  0.79431800  1
  O2-  O16  1  0.28684800  0.72760400  0.12802800  1
  O2-  O17  1  0.71315200  0.72760400  0.37197200  1
  O2-  O18  1  0.71315200  0.27239600  0.87197200  1
  O2-  O19  1  0.28684800  0.27239600  0.62802800  1
  O2-  O20  1  0.39911200  0.91502800  0.39887300  1
  O2-  O21  1  0.60088800  0.91502800  0.10112700  1
  O2-  O22  1  0.60088800  0.08497200  0.60112700  1
  O2-  O23  1  0.39911200  0.08497200  0.89887300  1
  O2-  O24  1  0.50000000  0.66305400  0.75000000  1
  O2-  O25  1  0.50000000  0.33694600  0.25000000  1
  O2-  O26  1  0.78289200  0.93262200  0.89648500  1
  O2-  O27  1  0.21710800  0.93262200  0.60351500  1
  O2-  O28  1  0.21710800  0.06737800  0.10351500  1
  O2-  O29  1  0.78289200  0.06737800  0.39648500  1
  O2-  O30  1  0.78684800  0.22760400  0.12802800  1
  O2-  O31  1  0.21315200  0.22760400  0.37197200  1
  O2-  O32  1  0.21315200  0.77239600  0.87197200  1
  O2-  O33  1  0.78684800  0.77239600  0.62802800  1
  O2-  O34  1  0.89911200  0.41502800  0.39887300  1
  O2-  O35  1  0.10088800  0.41502800  0.10112700  1
  O2-  O36  1  0.10088800  0.58497200  0.60112700  1
  O2-  O37  1  0.89911200  0.58497200  0.89887300  1
  O2-  O38  1  0.00000000  0.16305400  0.75000000  1
  O2-  O39  1  0.00000000  0.83694600  0.25000000  1
  O2-  O40  1  0.28289200  0.43262200  0.89648500  1
  O2-  O41  1  0.71710800  0.43262200  0.60351500  1
  O2-  O42  1  0.71710800  0.56737800  0.10351500  1
  O2-  O43  1  0.28289200  0.56737800  0.39648500  1
