# generated using pymatgen
data_Al2ZnO4
_symmetry_space_group_name_H-M   'P 1'
_cell_length_a   8.17793600
_cell_length_b   8.17793600
_cell_length_c   8.17793600
_cell_angle_alpha   90.00000000
_cell_angle_beta   90.00000000
_cell_angle_gamma   90.00000000
_symmetry_Int_Tables_number   1
_chemical_formula_structural   Al2ZnO4
_chemical_formula_sum   'Al16 Zn8 O32'
_cell_volume   546.92921495
_cell_formula_units_Z   8
loop_
 _symmetry_equiv_pos_site_id
 _symmetry_equiv_pos_as_xyz
  1  'x, y, z'
loop_
 _atom_type_symbol
 _atom_type_oxidation_number
  Al3+  3.0
  Zn2+  2.0
  O2-  -2.0
loop_
 _atom_site_type_symbol
 _atom_site_label
 _atom_site_symmetry_multiplicity
 _atom_site_fract_x
 _atom_site_fract_y
 _atom_site_fract_z
 _atom_site_occupancy
  Al3+  Al0  1  0.37500000  0.87500000  0.12500000  1
  Al3+  Al1  1  0.37500000  0.62500000  0.37500000  1
  Al3+  Al2  1  0.12500000  0.87500000  0.37500000  1
  Al3+  Al3  1  0.12500000  0.62500000  0.12500000  1
  Al3+  Al4  1  0.37500000  0.37500000  0.62500000  1
  Al3+  Al5  1  0.37500000  0.12500000  0.87500000  1
  Al3+  Al6  1  0.12500000  0.37500000  0.87500000  1
  Al3+  Al7  1  0.12500000  0.12500000  0.62500000  1
  Al3+  Al8  1  0.87500000  0.87500000  0.62500000  1
  Al3+  Al9  1  0.87500000  0.62500000  0.87500000  1
  Al3+  Al10  1  0.62500000  0.87500000  0.87500000  1
  Al3+  Al11  1  0.62500000  0.62500000  0.62500000  1
  Al3+  Al12  1  0.87500000  0.37500000  0.12500000  1
  Al3+  Al13  1  0.87500000  0.12500000  0.37500000  1
  Al3+  Al14  1  0.62500000  0.37500000  0.37500000  1
  Al3+  Al15  1  0.62500000  0.12500000  0.12500000  1
  Zn2+  Zn16  1  0.50000000  0.00000000  0.50000000  1
  Zn2+  Zn17  1  0.25000000  0.25000000  0.25000000  1
  Zn2+  Zn18  1  0.50000000  0.50000000  0.00000000  1
  Zn2+  Zn19  1  0.25000000  0.75000000  0.75000000  1
  Zn2+  Zn20  1  0.00000000  0.00000000  0.00000000  1
  Zn2+  Zn21  1  0.75000000  0.25000000  0.75000000  1
  Zn2+  Zn22  1  0.00000000  0.50000000  0.50000000  1
  Zn2+  Zn23  1  0.75000000  0.75000000  0.25000000  1
  O2-  O24  1  0.36053200  0.86053200  0.36053200  1
  O2-  O25  1  0.38946800  0.11053200  0.11053200  1
  O2-  O26  1  0.11053200  0.11053200  0.38946800  1
  O2-  O27  1  0.11053200  0.38946800  0.11053200  1
  O2-  O28  1  0.63946800  0.13946800  0.36053200  1
  O2-  O29  1  0.13946800  0.86053200  0.13946800  1
  O2-  O30  1  0.38946800  0.38946800  0.38946800  1
  O2-  O31  1  0.86053200  0.13946800  0.13946800  1
  O2-  O32  1  0.36053200  0.36053200  0.86053200  1
  O2-  O33  1  0.38946800  0.61053200  0.61053200  1
  O2-  O34  1  0.11053200  0.61053200  0.88946800  1
  O2-  O35  1  0.11053200  0.88946800  0.61053200  1
  O2-  O36  1  0.63946800  0.63946800  0.86053200  1
  O2-  O37  1  0.13946800  0.36053200  0.63946800  1
  O2-  O38  1  0.38946800  0.88946800  0.88946800  1
  O2-  O39  1  0.86053200  0.63946800  0.63946800  1
  O2-  O40  1  0.86053200  0.86053200  0.86053200  1
  O2-  O41  1  0.88946800  0.11053200  0.61053200  1
  O2-  O42  1  0.61053200  0.11053200  0.88946800  1
  O2-  O43  1  0.61053200  0.38946800  0.61053200  1
  O2-  O44  1  0.13946800  0.13946800  0.86053200  1
  O2-  O45  1  0.63946800  0.86053200  0.63946800  1
  O2-  O46  1  0.88946800  0.38946800  0.88946800  1
  O2-  O47  1  0.36053200  0.13946800  0.63946800  1
  O2-  O48  1  0.86053200  0.36053200  0.36053200  1
  O2-  O49  1  0.88946800  0.61053200  0.11053200  1
  O2-  O50  1  0.61053200  0.61053200  0.38946800  1
  O2-  O51  1  0.61053200  0.88946800  0.11053200  1
  O2-  O52  1  0.13946800  0.63946800  0.36053200  1
  O2-  O53  1  0.63946800  0.36053200  0.13946800  1
  O2-  O54  1  0.88946800  0.88946800  0.38946800  1
  O2-  O55  1  0.36053200  0.63946800  0.13946800  1
