# generated using pymatgen
data_AlAgO2
_symmetry_space_group_name_H-M   'P 1'
_cell_length_a   2.91873957
_cell_length_b   2.91873957
_cell_length_c   12.39473400
_cell_angle_alpha   90.00000000
_cell_angle_beta   90.00000000
_cell_angle_gamma   120.00000000
_symmetry_Int_Tables_number   1
_chemical_formula_structural   AlAgO2
_chemical_formula_sum   'Al2 Ag2 O4'
_cell_volume   91.44469913
_cell_formula_units_Z   2
loop_
 _symmetry_equiv_pos_site_id
 _symmetry_equiv_pos_as_xyz
  1  'x, y, z'
loop_
 _atom_type_symbol
 _atom_type_oxidation_number
  Al3+  3.0
  Ag+  1.0
  O2-  -2.0
loop_
 _atom_site_type_symbol
 _atom_site_label
 _atom_site_symmetry_multiplicity
 _atom_site_fract_x
 _atom_site_fract_y
 _atom_site_fract_z
 _atom_site_occupancy
  Al3+  Al0  1  0.00000000  0.00000000  0.50000000  1
  Al3+  Al1  1  0.00000000  0.00000000  0.00000000  1
  Ag+  Ag2  1  0.33333333  0.66666667  0.25000000  1
  Ag+  Ag3  1  0.66666667  0.33333333  0.75000000  1
  O2-  O4  1  0.66666667  0.33333333  0.92260500  1
  O2-  O5  1  0.33333333  0.66666667  0.42260500  1
  O2-  O6  1  0.66666667  0.33333333  0.57739500  1
  O2-  O7  1  0.33333333  0.66666667  0.07739500  1
