# generated using pymatgen
data_AlSbO4
_symmetry_space_group_name_H-M   'P 1'
_cell_length_a   6.34260800
_cell_length_b   6.47247400
_cell_length_c   3.05552600
_cell_angle_alpha   90.00000000
_cell_angle_beta   90.00000000
_cell_angle_gamma   90.00000000
_symmetry_Int_Tables_number   1
_chemical_formula_structural   AlSbO4
_chemical_formula_sum   'Al2 Sb2 O8'
_cell_volume   125.43656976
_cell_formula_units_Z   2
loop_
 _symmetry_equiv_pos_site_id
 _symmetry_equiv_pos_as_xyz
  1  'x, y, z'
loop_
 _atom_type_symbol
 _atom_type_oxidation_number
  Al3+  3.0
  Sb5+  5.0
  O2-  -2.0
loop_
 _atom_site_type_symbol
 _atom_site_label
 _atom_site_symmetry_multiplicity
 _atom_site_fract_x
 _atom_site_fract_y
 _atom_site_fract_z
 _atom_site_occupancy
  Al3+  Al0  1  0.50000000  0.00000000  0.50000000  1
  Al3+  Al1  1  0.00000000  0.50000000  0.50000000  1
  Sb5+  Sb2  1  0.00000000  0.00000000  0.00000000  1
  Sb5+  Sb3  1  0.50000000  0.50000000  0.00000000  1
  O2-  O4  1  0.68853800  0.00000000  0.00000000  1
  O2-  O5  1  0.50000000  0.70214200  0.50000000  1
  O2-  O6  1  0.50000000  0.29785800  0.50000000  1
  O2-  O7  1  0.31146200  0.00000000  0.00000000  1
  O2-  O8  1  0.18853800  0.50000000  0.00000000  1
  O2-  O9  1  0.00000000  0.20214200  0.50000000  1
  O2-  O10  1  0.00000000  0.79785800  0.50000000  1
  O2-  O11  1  0.81146200  0.50000000  0.00000000  1
