# generated using pymatgen
data_AsAuO4
_symmetry_space_group_name_H-M   'P 1'
_cell_length_a   8.28673600
_cell_length_b   5.97337400
_cell_length_c   8.05310623
_cell_angle_alpha   90.00000000
_cell_angle_beta   96.00452260
_cell_angle_gamma   90.00000000
_symmetry_Int_Tables_number   1
_chemical_formula_structural   AsAuO4
_chemical_formula_sum   'As4 Au4 O16'
_cell_volume   396.43992292
_cell_formula_units_Z   4
loop_
 _symmetry_equiv_pos_site_id
 _symmetry_equiv_pos_as_xyz
  1  'x, y, z'
loop_
 _atom_type_symbol
 _atom_type_oxidation_number
  As5+  5.0
  Au3+  3.0
  O2-  -2.0
loop_
 _atom_site_type_symbol
 _atom_site_label
 _atom_site_symmetry_multiplicity
 _atom_site_fract_x
 _atom_site_fract_y
 _atom_site_fract_z
 _atom_site_occupancy
  As5+  As0  1  0.50000000  0.43753400  0.75000000  1
  As5+  As1  1  0.50000000  0.56246600  0.25000000  1
  As5+  As2  1  0.00000000  0.93753400  0.75000000  1
  As5+  As3  1  0.00000000  0.06246600  0.25000000  1
  Au3+  Au4  1  0.75000000  0.25000000  0.50000000  1
  Au3+  Au5  1  0.75000000  0.75000000  0.00000000  1
  Au3+  Au6  1  0.25000000  0.75000000  0.50000000  1
  Au3+  Au7  1  0.25000000  0.25000000  0.00000000  1
  O2-  O8  1  0.47405250  0.27126750  0.92237200  1
  O2-  O9  1  0.52594750  0.27126750  0.57762800  1
  O2-  O10  1  0.52594750  0.72873250  0.07762800  1
  O2-  O11  1  0.47405250  0.72873250  0.42237200  1
  O2-  O12  1  0.17925000  0.08908200  0.78472600  1
  O2-  O13  1  0.82075000  0.08908200  0.71527400  1
  O2-  O14  1  0.82075000  0.91091800  0.21527400  1
  O2-  O15  1  0.17925000  0.91091800  0.28472600  1
  O2-  O16  1  0.97405250  0.77126750  0.92237200  1
  O2-  O17  1  0.02594750  0.77126750  0.57762800  1
  O2-  O18  1  0.02594750  0.22873250  0.07762800  1
  O2-  O19  1  0.97405250  0.22873250  0.42237200  1
  O2-  O20  1  0.67925000  0.58908200  0.78472600  1
  O2-  O21  1  0.32075000  0.58908200  0.71527400  1
  O2-  O22  1  0.32075000  0.41091800  0.21527400  1
  O2-  O23  1  0.67925000  0.41091800  0.28472600  1
