# generated using pymatgen
data_Ba(AsO3)2
_symmetry_space_group_name_H-M   'P 1'
_cell_length_a   7.47962100
_cell_length_b   18.14634200
_cell_length_c   5.07886432
_cell_angle_alpha   90.00000000
_cell_angle_beta   128.48683501
_cell_angle_gamma   90.00000000
_symmetry_Int_Tables_number   1
_chemical_formula_structural   Ba(AsO3)2
_chemical_formula_sum   'Ba4 As8 O24'
_cell_volume   539.58394819
_cell_formula_units_Z   4
loop_
 _symmetry_equiv_pos_site_id
 _symmetry_equiv_pos_as_xyz
  1  'x, y, z'
loop_
 _atom_type_symbol
 _atom_type_oxidation_number
  Ba2+  2.0
  As5+  5.0
  O2-  -2.0
loop_
 _atom_site_type_symbol
 _atom_site_label
 _atom_site_symmetry_multiplicity
 _atom_site_fract_x
 _atom_site_fract_y
 _atom_site_fract_z
 _atom_site_occupancy
  Ba2+  Ba0  1  0.00000000  0.14508600  0.75000000  1
  Ba2+  Ba1  1  0.50000000  0.35491400  0.25000000  1
  Ba2+  Ba2  1  0.50000000  0.64508600  0.75000000  1
  Ba2+  Ba3  1  0.00000000  0.85491400  0.25000000  1
  As5+  As4  1  0.50000000  0.03424400  0.75000000  1
  As5+  As5  1  0.00000000  0.46575600  0.25000000  1
  As5+  As6  1  0.50000000  0.18757300  0.75000000  1
  As5+  As7  1  0.00000000  0.31242700  0.25000000  1
  As5+  As8  1  0.00000000  0.53424400  0.75000000  1
  As5+  As9  1  0.50000000  0.96575600  0.25000000  1
  As5+  As10  1  0.00000000  0.68757300  0.75000000  1
  As5+  As11  1  0.50000000  0.81242700  0.25000000  1
  O2-  O12  1  0.67830400  0.03086900  0.60671000  1
  O2-  O13  1  0.32169600  0.03086900  0.89329000  1
  O2-  O14  1  0.82169600  0.46913100  0.39329000  1
  O2-  O15  1  0.17830400  0.46913100  0.10671000  1
  O2-  O16  1  0.68420700  0.11550100  0.03864700  1
  O2-  O17  1  0.31579300  0.11550100  0.46135300  1
  O2-  O18  1  0.81579300  0.38449900  0.96135300  1
  O2-  O19  1  0.18420700  0.38449900  0.53864700  1
  O2-  O20  1  0.64403000  0.23227600  0.64406500  1
  O2-  O21  1  0.35597000  0.23227600  0.85593500  1
  O2-  O22  1  0.85597000  0.26772400  0.35593500  1
  O2-  O23  1  0.14403000  0.26772400  0.14406500  1
  O2-  O24  1  0.17830400  0.53086900  0.60671000  1
  O2-  O25  1  0.82169600  0.53086900  0.89329000  1
  O2-  O26  1  0.32169600  0.96913100  0.39329000  1
  O2-  O27  1  0.67830400  0.96913100  0.10671000  1
  O2-  O28  1  0.18420700  0.61550100  0.03864700  1
  O2-  O29  1  0.81579300  0.61550100  0.46135300  1
  O2-  O30  1  0.31579300  0.88449900  0.96135300  1
  O2-  O31  1  0.68420700  0.88449900  0.53864700  1
  O2-  O32  1  0.14403000  0.73227600  0.64406500  1
  O2-  O33  1  0.85597000  0.73227600  0.85593500  1
  O2-  O34  1  0.35597000  0.76772400  0.35593500  1
  O2-  O35  1  0.64403000  0.76772400  0.14406500  1
