# generated using pymatgen
data_Ba2Bi2O5
_symmetry_space_group_name_H-M   'P 1'
_cell_length_a   6.29630400
_cell_length_b   7.59682600
_cell_length_c   7.60207088
_cell_angle_alpha   90.00000000
_cell_angle_beta   100.40004339
_cell_angle_gamma   90.00000000
_symmetry_Int_Tables_number   1
_chemical_formula_structural   Ba2Bi2O5
_chemical_formula_sum   'Ba4 Bi4 O10'
_cell_volume   357.64787210
_cell_formula_units_Z   2
loop_
 _symmetry_equiv_pos_site_id
 _symmetry_equiv_pos_as_xyz
  1  'x, y, z'
loop_
 _atom_type_symbol
 _atom_type_oxidation_number
  Ba2+  2.0
  Bi3+  3.0
  O2-  -2.0
loop_
 _atom_site_type_symbol
 _atom_site_label
 _atom_site_symmetry_multiplicity
 _atom_site_fract_x
 _atom_site_fract_y
 _atom_site_fract_z
 _atom_site_occupancy
  Ba2+  Ba0  1  0.22041100  0.92713000  0.86333800  1
  Ba2+  Ba1  1  0.27958900  0.42713000  0.13666200  1
  Ba2+  Ba2  1  0.77958900  0.07287000  0.13666200  1
  Ba2+  Ba3  1  0.72041100  0.57287000  0.86333800  1
  Bi3+  Bi4  1  0.26961000  0.88220200  0.36799000  1
  Bi3+  Bi5  1  0.23039000  0.38220200  0.63201000  1
  Bi3+  Bi6  1  0.73039000  0.11779800  0.63201000  1
  Bi3+  Bi7  1  0.76961000  0.61779800  0.36799000  1
  O2-  O8  1  0.53915800  0.77607400  0.19728600  1
  O2-  O9  1  0.96084200  0.27607400  0.80271400  1
  O2-  O10  1  0.46084200  0.22392600  0.80271400  1
  O2-  O11  1  0.03915800  0.72392600  0.19728600  1
  O2-  O12  1  0.26856200  0.58824300  0.82002700  1
  O2-  O13  1  0.23143800  0.08824300  0.17997300  1
  O2-  O14  1  0.73143800  0.41175700  0.17997300  1
  O2-  O15  1  0.76856200  0.91175700  0.82002700  1
  O2-  O16  1  0.00000000  0.00000000  0.50000000  1
  O2-  O17  1  0.50000000  0.50000000  0.50000000  1
