# generated using pymatgen
data_Ba2Cd(BO2)6
_symmetry_space_group_name_H-M   'P 1'
_cell_length_a   7.23115831
_cell_length_b   7.23115831
_cell_length_c   17.81043978
_cell_angle_alpha   90.00000000
_cell_angle_beta   90.00000000
_cell_angle_gamma   120.00000000
_symmetry_Int_Tables_number   1
_chemical_formula_structural   Ba2Cd(BO2)6
_chemical_formula_sum   'Ba6 Cd3 B18 O36'
_cell_volume   806.53090580
_cell_formula_units_Z   3
loop_
 _symmetry_equiv_pos_site_id
 _symmetry_equiv_pos_as_xyz
  1  'x, y, z'
loop_
 _atom_type_symbol
 _atom_type_oxidation_number
  Ba2+  2.0
  Cd2+  2.0
  B3+  3.0
  O2-  -2.0
loop_
 _atom_site_type_symbol
 _atom_site_label
 _atom_site_symmetry_multiplicity
 _atom_site_fract_x
 _atom_site_fract_y
 _atom_site_fract_z
 _atom_site_occupancy
  Ba2+  Ba0  1  0.00000000  0.00000000  0.20853400  1
  Ba2+  Ba1  1  0.66666667  0.33333333  0.12479933  1
  Ba2+  Ba2  1  0.66666667  0.33333333  0.54186733  1
  Ba2+  Ba3  1  0.33333333  0.66666667  0.45813267  1
  Ba2+  Ba4  1  0.33333333  0.66666667  0.87520067  1
  Ba2+  Ba5  1  0.00000000  0.00000000  0.79146600  1
  Cd2+  Cd6  1  0.00000000  0.00000000  0.00000000  1
  Cd2+  Cd7  1  0.66666667  0.33333333  0.33333333  1
  Cd2+  Cd8  1  0.33333333  0.66666667  0.66666667  1
  B3+  B9  1  0.16255633  0.44859967  0.08106567  1
  B3+  B10  1  0.55140033  0.71395667  0.08106567  1
  B3+  B11  1  0.28604333  0.83744367  0.08106567  1
  B3+  B12  1  0.50411033  0.88473367  0.25226767  1
  B3+  B13  1  0.11526633  0.61937667  0.25226767  1
  B3+  B14  1  0.38062333  0.49588967  0.25226767  1
  B3+  B15  1  0.82922300  0.78193300  0.41439900  1
  B3+  B16  1  0.21806700  0.04729000  0.41439900  1
  B3+  B17  1  0.95271000  0.17077700  0.41439900  1
  B3+  B18  1  0.17077700  0.21806700  0.58560100  1
  B3+  B19  1  0.78193300  0.95271000  0.58560100  1
  B3+  B20  1  0.04729000  0.82922300  0.58560100  1
  B3+  B21  1  0.49588967  0.11526633  0.74773233  1
  B3+  B22  1  0.88473367  0.38062333  0.74773233  1
  B3+  B23  1  0.61937667  0.50411033  0.74773233  1
  B3+  B24  1  0.83744367  0.55140033  0.91893433  1
  B3+  B25  1  0.44859967  0.28604333  0.91893433  1
  B3+  B26  1  0.71395667  0.16255633  0.91893433  1
  O2-  O27  1  0.99958300  0.24953400  0.08615100  1
  O2-  O28  1  0.75046600  0.75004900  0.08615100  1
  O2-  O29  1  0.24995100  0.00041700  0.08615100  1
  O2-  O30  1  0.66708367  0.08379933  0.24718233  1
  O2-  O31  1  0.91620067  0.58328433  0.24718233  1
  O2-  O32  1  0.41671567  0.33291633  0.24718233  1
  O2-  O33  1  0.12299167  0.62156633  0.07915633  1
  O2-  O34  1  0.37843367  0.50142533  0.07915633  1
  O2-  O35  1  0.49857467  0.87700833  0.07915633  1
  O2-  O36  1  0.54367500  0.71176700  0.25417700  1
  O2-  O37  1  0.28823300  0.83190800  0.25417700  1
  O2-  O38  1  0.16809200  0.45632500  0.25417700  1
  O2-  O39  1  0.66624967  0.58286733  0.41948433  1
  O2-  O40  1  0.41713267  0.08338233  0.41948433  1
  O2-  O41  1  0.91661767  0.33375033  0.41948433  1
  O2-  O42  1  0.33375033  0.41713267  0.58051567  1
  O2-  O43  1  0.58286733  0.91661767  0.58051567  1
  O2-  O44  1  0.08338233  0.66624967  0.58051567  1
  O2-  O45  1  0.78965833  0.95489967  0.41248967  1
  O2-  O46  1  0.04510033  0.83475867  0.41248967  1
  O2-  O47  1  0.16524133  0.21034167  0.41248967  1
  O2-  O48  1  0.21034167  0.04510033  0.58751033  1
  O2-  O49  1  0.95489967  0.16524133  0.58751033  1
  O2-  O50  1  0.83475867  0.78965833  0.58751033  1
  O2-  O51  1  0.33291633  0.91620067  0.75281767  1
  O2-  O52  1  0.08379933  0.41671567  0.75281767  1
  O2-  O53  1  0.58328433  0.66708367  0.75281767  1
  O2-  O54  1  0.00041700  0.75046600  0.91384900  1
  O2-  O55  1  0.24953400  0.24995100  0.91384900  1
  O2-  O56  1  0.75004900  0.99958300  0.91384900  1
  O2-  O57  1  0.45632500  0.28823300  0.74582300  1
  O2-  O58  1  0.71176700  0.16809200  0.74582300  1
  O2-  O59  1  0.83190800  0.54367500  0.74582300  1
  O2-  O60  1  0.87700833  0.37843367  0.92084367  1
  O2-  O61  1  0.62156633  0.49857467  0.92084367  1
  O2-  O62  1  0.50142533  0.12299167  0.92084367  1
