# generated using pymatgen
data_Ba2CePtO6
_symmetry_space_group_name_H-M   'P 1'
_cell_length_a   8.51350000
_cell_length_b   8.51350000
_cell_length_c   8.51350000
_cell_angle_alpha   90.00000000
_cell_angle_beta   90.00000000
_cell_angle_gamma   90.00000000
_symmetry_Int_Tables_number   1
_chemical_formula_structural   Ba2CePtO6
_chemical_formula_sum   'Ba8 Ce4 Pt4 O24'
_cell_volume   617.05577484
_cell_formula_units_Z   4
loop_
 _symmetry_equiv_pos_site_id
 _symmetry_equiv_pos_as_xyz
  1  'x, y, z'
loop_
 _atom_type_symbol
 _atom_type_oxidation_number
  Ba2+  2.0
  Ce3+  3.0
  Pt5+  5.0
  O2-  -2.0
loop_
 _atom_site_type_symbol
 _atom_site_label
 _atom_site_symmetry_multiplicity
 _atom_site_fract_x
 _atom_site_fract_y
 _atom_site_fract_z
 _atom_site_occupancy
  Ba2+  Ba0  1  0.25000000  0.25000000  0.75000000  1
  Ba2+  Ba1  1  0.25000000  0.75000000  0.75000000  1
  Ba2+  Ba2  1  0.25000000  0.75000000  0.25000000  1
  Ba2+  Ba3  1  0.25000000  0.25000000  0.25000000  1
  Ba2+  Ba4  1  0.75000000  0.25000000  0.25000000  1
  Ba2+  Ba5  1  0.75000000  0.75000000  0.25000000  1
  Ba2+  Ba6  1  0.75000000  0.75000000  0.75000000  1
  Ba2+  Ba7  1  0.75000000  0.25000000  0.75000000  1
  Ce3+  Ce8  1  0.50000000  0.00000000  0.00000000  1
  Ce3+  Ce9  1  0.50000000  0.50000000  0.50000000  1
  Ce3+  Ce10  1  0.00000000  0.00000000  0.50000000  1
  Ce3+  Ce11  1  0.00000000  0.50000000  0.00000000  1
  Pt5+  Pt12  1  0.00000000  0.00000000  0.00000000  1
  Pt5+  Pt13  1  0.00000000  0.50000000  0.50000000  1
  Pt5+  Pt14  1  0.50000000  0.00000000  0.50000000  1
  Pt5+  Pt15  1  0.50000000  0.50000000  0.00000000  1
  O2-  O16  1  0.00000000  0.00000000  0.76049700  1
  O2-  O17  1  0.50000000  0.26049700  0.00000000  1
  O2-  O18  1  0.50000000  0.73950300  0.00000000  1
  O2-  O19  1  0.23950300  0.00000000  0.00000000  1
  O2-  O20  1  0.50000000  0.00000000  0.73950300  1
  O2-  O21  1  0.76049700  0.00000000  0.00000000  1
  O2-  O22  1  0.00000000  0.50000000  0.26049700  1
  O2-  O23  1  0.50000000  0.76049700  0.50000000  1
  O2-  O24  1  0.50000000  0.23950300  0.50000000  1
  O2-  O25  1  0.23950300  0.50000000  0.50000000  1
  O2-  O26  1  0.50000000  0.50000000  0.23950300  1
  O2-  O27  1  0.76049700  0.50000000  0.50000000  1
  O2-  O28  1  0.50000000  0.00000000  0.26049700  1
  O2-  O29  1  0.00000000  0.26049700  0.50000000  1
  O2-  O30  1  0.00000000  0.73950300  0.50000000  1
  O2-  O31  1  0.73950300  0.00000000  0.50000000  1
  O2-  O32  1  0.00000000  0.00000000  0.23950300  1
  O2-  O33  1  0.26049700  0.00000000  0.50000000  1
  O2-  O34  1  0.50000000  0.50000000  0.76049700  1
  O2-  O35  1  0.00000000  0.76049700  0.00000000  1
  O2-  O36  1  0.00000000  0.23950300  0.00000000  1
  O2-  O37  1  0.73950300  0.50000000  0.00000000  1
  O2-  O38  1  0.00000000  0.50000000  0.73950300  1
  O2-  O39  1  0.26049700  0.50000000  0.00000000  1
