# generated using pymatgen
data_Ba2Ca(PdO2)3
_symmetry_space_group_name_H-M   'P 1'
_cell_length_a   8.89964800
_cell_length_b   11.60528000
_cell_length_c   15.23558200
_cell_angle_alpha   90.00000000
_cell_angle_beta   90.00000000
_cell_angle_gamma   90.00000000
_symmetry_Int_Tables_number   1
_chemical_formula_structural   Ba2Ca(PdO2)3
_chemical_formula_sum   'Ba16 Ca8 Pd24 O48'
_cell_volume   1573.57519790
_cell_formula_units_Z   8
loop_
 _symmetry_equiv_pos_site_id
 _symmetry_equiv_pos_as_xyz
  1  'x, y, z'
loop_
 _atom_type_symbol
 _atom_type_oxidation_number
  Ba2+  2.0
  Ca2+  2.0
  Pd2+  2.0
  O2-  -2.0
loop_
 _atom_site_type_symbol
 _atom_site_label
 _atom_site_symmetry_multiplicity
 _atom_site_fract_x
 _atom_site_fract_y
 _atom_site_fract_z
 _atom_site_occupancy
  Ba2+  Ba0  1  0.75000000  0.25000000  0.25000000  1
  Ba2+  Ba1  1  0.75000000  0.75000000  0.25000000  1
  Ba2+  Ba2  1  0.50000000  0.73298000  0.00000000  1
  Ba2+  Ba3  1  0.50000000  0.26702000  0.00000000  1
  Ba2+  Ba4  1  0.75000000  0.75000000  0.75000000  1
  Ba2+  Ba5  1  0.75000000  0.25000000  0.75000000  1
  Ba2+  Ba6  1  0.50000000  0.23298000  0.50000000  1
  Ba2+  Ba7  1  0.50000000  0.76702000  0.50000000  1
  Ba2+  Ba8  1  0.25000000  0.25000000  0.75000000  1
  Ba2+  Ba9  1  0.25000000  0.75000000  0.75000000  1
  Ba2+  Ba10  1  0.00000000  0.73298000  0.50000000  1
  Ba2+  Ba11  1  0.00000000  0.26702000  0.50000000  1
  Ba2+  Ba12  1  0.25000000  0.75000000  0.25000000  1
  Ba2+  Ba13  1  0.25000000  0.25000000  0.25000000  1
  Ba2+  Ba14  1  0.00000000  0.23298000  0.00000000  1
  Ba2+  Ba15  1  0.00000000  0.76702000  0.00000000  1
  Ca2+  Ca16  1  0.50000000  0.00000000  0.17063000  1
  Ca2+  Ca17  1  0.00000000  0.00000000  0.32937000  1
  Ca2+  Ca18  1  0.50000000  0.50000000  0.67063000  1
  Ca2+  Ca19  1  0.00000000  0.50000000  0.82937000  1
  Ca2+  Ca20  1  0.00000000  0.00000000  0.67063000  1
  Ca2+  Ca21  1  0.50000000  0.00000000  0.82937000  1
  Ca2+  Ca22  1  0.00000000  0.50000000  0.17063000  1
  Ca2+  Ca23  1  0.50000000  0.50000000  0.32937000  1
  Pd2+  Pd24  1  0.65826800  0.00000000  0.34819800  1
  Pd2+  Pd25  1  0.15826800  0.00000000  0.15180200  1
  Pd2+  Pd26  1  0.34173200  0.00000000  0.34819800  1
  Pd2+  Pd27  1  0.84173200  0.00000000  0.15180200  1
  Pd2+  Pd28  1  0.67466000  0.00000000  0.00000000  1
  Pd2+  Pd29  1  0.32534000  0.00000000  0.00000000  1
  Pd2+  Pd30  1  0.65826800  0.50000000  0.84819800  1
  Pd2+  Pd31  1  0.15826800  0.50000000  0.65180200  1
  Pd2+  Pd32  1  0.34173200  0.50000000  0.84819800  1
  Pd2+  Pd33  1  0.84173200  0.50000000  0.65180200  1
  Pd2+  Pd34  1  0.67466000  0.50000000  0.50000000  1
  Pd2+  Pd35  1  0.32534000  0.50000000  0.50000000  1
  Pd2+  Pd36  1  0.15826800  0.00000000  0.84819800  1
  Pd2+  Pd37  1  0.65826800  0.00000000  0.65180200  1
  Pd2+  Pd38  1  0.84173200  0.00000000  0.84819800  1
  Pd2+  Pd39  1  0.34173200  0.00000000  0.65180200  1
  Pd2+  Pd40  1  0.17466000  0.00000000  0.50000000  1
  Pd2+  Pd41  1  0.82534000  0.00000000  0.50000000  1
  Pd2+  Pd42  1  0.15826800  0.50000000  0.34819800  1
  Pd2+  Pd43  1  0.65826800  0.50000000  0.15180200  1
  Pd2+  Pd44  1  0.84173200  0.50000000  0.34819800  1
  Pd2+  Pd45  1  0.34173200  0.50000000  0.15180200  1
  Pd2+  Pd46  1  0.17466000  0.50000000  0.00000000  1
  Pd2+  Pd47  1  0.82534000  0.50000000  0.00000000  1
  O2-  O48  1  0.18728200  0.11690200  0.39838000  1
  O2-  O49  1  0.68728200  0.88309800  0.10162000  1
  O2-  O50  1  0.31271800  0.11690200  0.10162000  1
  O2-  O51  1  0.81271800  0.88309800  0.39838000  1
  O2-  O52  1  0.31271800  0.88309800  0.10162000  1
  O2-  O53  1  0.81271800  0.11690200  0.39838000  1
  O2-  O54  1  0.50000000  0.88258450  0.30469350  1
  O2-  O55  1  0.68728200  0.11690200  0.10162000  1
  O2-  O56  1  0.50000000  0.11741550  0.30469350  1
  O2-  O57  1  0.00000000  0.88258450  0.19530650  1
  O2-  O58  1  0.00000000  0.11741550  0.19530650  1
  O2-  O59  1  0.18728200  0.88309800  0.39838000  1
  O2-  O60  1  0.18728200  0.61690200  0.89838000  1
  O2-  O61  1  0.68728200  0.38309800  0.60162000  1
  O2-  O62  1  0.31271800  0.61690200  0.60162000  1
  O2-  O63  1  0.81271800  0.38309800  0.89838000  1
  O2-  O64  1  0.31271800  0.38309800  0.60162000  1
  O2-  O65  1  0.81271800  0.61690200  0.89838000  1
  O2-  O66  1  0.50000000  0.38258450  0.80469350  1
  O2-  O67  1  0.68728200  0.61690200  0.60162000  1
  O2-  O68  1  0.50000000  0.61741550  0.80469350  1
  O2-  O69  1  0.00000000  0.38258450  0.69530650  1
  O2-  O70  1  0.00000000  0.61741550  0.69530650  1
  O2-  O71  1  0.18728200  0.38309800  0.89838000  1
  O2-  O72  1  0.68728200  0.11690200  0.89838000  1
  O2-  O73  1  0.18728200  0.88309800  0.60162000  1
  O2-  O74  1  0.81271800  0.11690200  0.60162000  1
  O2-  O75  1  0.31271800  0.88309800  0.89838000  1
  O2-  O76  1  0.81271800  0.88309800  0.60162000  1
  O2-  O77  1  0.31271800  0.11690200  0.89838000  1
  O2-  O78  1  0.00000000  0.88258450  0.80469350  1
  O2-  O79  1  0.18728200  0.11690200  0.60162000  1
  O2-  O80  1  0.00000000  0.11741550  0.80469350  1
  O2-  O81  1  0.50000000  0.88258450  0.69530650  1
  O2-  O82  1  0.50000000  0.11741550  0.69530650  1
  O2-  O83  1  0.68728200  0.88309800  0.89838000  1
  O2-  O84  1  0.68728200  0.61690200  0.39838000  1
  O2-  O85  1  0.18728200  0.38309800  0.10162000  1
  O2-  O86  1  0.81271800  0.61690200  0.10162000  1
  O2-  O87  1  0.31271800  0.38309800  0.39838000  1
  O2-  O88  1  0.81271800  0.38309800  0.10162000  1
  O2-  O89  1  0.31271800  0.61690200  0.39838000  1
  O2-  O90  1  0.00000000  0.38258450  0.30469350  1
  O2-  O91  1  0.18728200  0.61690200  0.10162000  1
  O2-  O92  1  0.00000000  0.61741550  0.30469350  1
  O2-  O93  1  0.50000000  0.38258450  0.19530650  1
  O2-  O94  1  0.50000000  0.61741550  0.19530650  1
  O2-  O95  1  0.68728200  0.38309800  0.39838000  1
