# generated using pymatgen
data_Ba2Cd(BO3)2
_symmetry_space_group_name_H-M   'P 1'
_cell_length_a   9.80402796
_cell_length_b   5.40449900
_cell_length_c   6.76680869
_cell_angle_alpha   90.00000000
_cell_angle_beta   117.94950402
_cell_angle_gamma   90.00000000
_symmetry_Int_Tables_number   1
_chemical_formula_structural   Ba2Cd(BO3)2
_chemical_formula_sum   'Ba4 Cd2 B4 O12'
_cell_volume   316.72482463
_cell_formula_units_Z   2
loop_
 _symmetry_equiv_pos_site_id
 _symmetry_equiv_pos_as_xyz
  1  'x, y, z'
loop_
 _atom_type_symbol
 _atom_type_oxidation_number
  Ba2+  2.0
  Cd2+  2.0
  B3+  3.0
  O2-  -2.0
loop_
 _atom_site_type_symbol
 _atom_site_label
 _atom_site_symmetry_multiplicity
 _atom_site_fract_x
 _atom_site_fract_y
 _atom_site_fract_z
 _atom_site_occupancy
  Ba2+  Ba0  1  0.21007500  0.00000000  0.68957100  1
  Ba2+  Ba1  1  0.28992500  0.50000000  0.31042900  1
  Ba2+  Ba2  1  0.71007500  0.50000000  0.68957100  1
  Ba2+  Ba3  1  0.78992500  0.00000000  0.31042900  1
  Cd2+  Cd4  1  0.00000000  0.00000000  0.00000000  1
  Cd2+  Cd5  1  0.50000000  0.50000000  0.00000000  1
  B3+  B6  1  0.06070450  0.50000000  0.76189800  1
  B3+  B7  1  0.43929550  0.00000000  0.23810200  1
  B3+  B8  1  0.56070450  0.00000000  0.76189800  1
  B3+  B9  1  0.93929550  0.50000000  0.23810200  1
  O2-  O10  1  0.47901050  0.77668050  0.72830400  1
  O2-  O11  1  0.47901050  0.22331950  0.72830400  1
  O2-  O12  1  0.02098950  0.72331950  0.27169600  1
  O2-  O13  1  0.02098950  0.27668050  0.27169600  1
  O2-  O14  1  0.21771600  0.50000000  0.82648200  1
  O2-  O15  1  0.28228400  0.00000000  0.17351800  1
  O2-  O16  1  0.97901050  0.27668050  0.72830400  1
  O2-  O17  1  0.97901050  0.72331950  0.72830400  1
  O2-  O18  1  0.52098950  0.22331950  0.27169600  1
  O2-  O19  1  0.52098950  0.77668050  0.27169600  1
  O2-  O20  1  0.71771600  0.00000000  0.82648200  1
  O2-  O21  1  0.78228400  0.50000000  0.17351800  1
