# generated using pymatgen
data_Ba2InGaO5
_symmetry_space_group_name_H-M   'P 1'
_cell_length_a   6.01296000
_cell_length_b   6.21006000
_cell_length_c   15.78581600
_cell_angle_alpha   90.00000000
_cell_angle_beta   90.00000000
_cell_angle_gamma   90.00000000
_symmetry_Int_Tables_number   1
_chemical_formula_structural   Ba2InGaO5
_chemical_formula_sum   'Ba8 In4 Ga4 O20'
_cell_volume   589.45566706
_cell_formula_units_Z   4
loop_
 _symmetry_equiv_pos_site_id
 _symmetry_equiv_pos_as_xyz
  1  'x, y, z'
loop_
 _atom_type_symbol
 _atom_type_oxidation_number
  Ba2+  2.0
  In3+  3.0
  Ga3+  3.0
  O2-  -2.0
loop_
 _atom_site_type_symbol
 _atom_site_label
 _atom_site_symmetry_multiplicity
 _atom_site_fract_x
 _atom_site_fract_y
 _atom_site_fract_z
 _atom_site_occupancy
  Ba2+  Ba0  1  0.98145300  0.50633900  0.88119100  1
  Ba2+  Ba1  1  0.48145300  0.99366100  0.61880900  1
  Ba2+  Ba2  1  0.98145300  0.50633900  0.61880900  1
  Ba2+  Ba3  1  0.48145300  0.99366100  0.88119100  1
  Ba2+  Ba4  1  0.48145300  0.00633900  0.38119100  1
  Ba2+  Ba5  1  0.98145300  0.49366100  0.11880900  1
  Ba2+  Ba6  1  0.48145300  0.00633900  0.11880900  1
  Ba2+  Ba7  1  0.98145300  0.49366100  0.38119100  1
  In3+  In8  1  0.48355700  0.50000000  0.00000000  1
  In3+  In9  1  0.98355700  0.00000000  0.00000000  1
  In3+  In10  1  0.98355700  0.00000000  0.50000000  1
  In3+  In11  1  0.48355700  0.50000000  0.50000000  1
  Ga3+  Ga12  1  0.48815000  0.43476900  0.75000000  1
  Ga3+  Ga13  1  0.98815000  0.06523100  0.75000000  1
  Ga3+  Ga14  1  0.98815000  0.93476900  0.25000000  1
  Ga3+  Ga15  1  0.48815000  0.56523100  0.25000000  1
  O2-  O16  1  0.23419600  0.24987400  0.51065500  1
  O2-  O17  1  0.73419600  0.25012600  0.98934500  1
  O2-  O18  1  0.23419600  0.24987400  0.98934500  1
  O2-  O19  1  0.73419600  0.25012600  0.51065500  1
  O2-  O20  1  0.48880100  0.57008900  0.85375700  1
  O2-  O21  1  0.98880100  0.92991100  0.64624300  1
  O2-  O22  1  0.48880100  0.57008900  0.64624300  1
  O2-  O23  1  0.98880100  0.92991100  0.85375700  1
  O2-  O24  1  0.24679300  0.24019500  0.75000000  1
  O2-  O25  1  0.74679300  0.25980500  0.75000000  1
  O2-  O26  1  0.73419600  0.74987400  0.01065500  1
  O2-  O27  1  0.23419600  0.75012600  0.48934500  1
  O2-  O28  1  0.73419600  0.74987400  0.48934500  1
  O2-  O29  1  0.23419600  0.75012600  0.01065500  1
  O2-  O30  1  0.98880100  0.07008900  0.35375700  1
  O2-  O31  1  0.48880100  0.42991100  0.14624300  1
  O2-  O32  1  0.98880100  0.07008900  0.14624300  1
  O2-  O33  1  0.48880100  0.42991100  0.35375700  1
  O2-  O34  1  0.74679300  0.74019500  0.25000000  1
  O2-  O35  1  0.24679300  0.75980500  0.25000000  1
