# generated using pymatgen
data_Ba2In2O5
_symmetry_space_group_name_H-M   'P 1'
_cell_length_a   6.05647800
_cell_length_b   6.23725200
_cell_length_c   16.89842400
_cell_angle_alpha   90.00000000
_cell_angle_beta   90.00000000
_cell_angle_gamma   90.00000000
_symmetry_Int_Tables_number   1
_chemical_formula_structural   Ba2In2O5
_chemical_formula_sum   'Ba8 In8 O20'
_cell_volume   638.35113923
_cell_formula_units_Z   4
loop_
 _symmetry_equiv_pos_site_id
 _symmetry_equiv_pos_as_xyz
  1  'x, y, z'
loop_
 _atom_type_symbol
 _atom_type_oxidation_number
  Ba2+  2.0
  In3+  3.0
  O2-  -2.0
loop_
 _atom_site_type_symbol
 _atom_site_label
 _atom_site_symmetry_multiplicity
 _atom_site_fract_x
 _atom_site_fract_y
 _atom_site_fract_z
 _atom_site_occupancy
  Ba2+  Ba0  1  0.52018300  0.01791400  0.60899400  1
  Ba2+  Ba1  1  0.02018300  0.48208600  0.89100600  1
  Ba2+  Ba2  1  0.02018300  0.48208600  0.60899400  1
  Ba2+  Ba3  1  0.52018300  0.01791400  0.89100600  1
  Ba2+  Ba4  1  0.02018300  0.51791400  0.10899400  1
  Ba2+  Ba5  1  0.52018300  0.98208600  0.39100600  1
  Ba2+  Ba6  1  0.52018300  0.98208600  0.10899400  1
  Ba2+  Ba7  1  0.02018300  0.51791400  0.39100600  1
  In3+  In8  1  0.49307500  0.56659700  0.75000000  1
  In3+  In9  1  0.99307500  0.93340300  0.75000000  1
  In3+  In10  1  0.52527900  0.50000000  0.00000000  1
  In3+  In11  1  0.02527900  0.00000000  0.00000000  1
  In3+  In12  1  0.99307500  0.06659700  0.25000000  1
  In3+  In13  1  0.49307500  0.43340300  0.25000000  1
  In3+  In14  1  0.02527900  0.00000000  0.50000000  1
  In3+  In15  1  0.52527900  0.50000000  0.50000000  1
  O2-  O16  1  0.14854100  0.62959100  0.75000000  1
  O2-  O17  1  0.64854100  0.87040900  0.75000000  1
  O2-  O18  1  0.04874650  0.05503250  0.63783550  1
  O2-  O19  1  0.54874650  0.44496750  0.86216450  1
  O2-  O20  1  0.54874650  0.44496750  0.63783550  1
  O2-  O21  1  0.04874650  0.05503250  0.86216450  1
  O2-  O22  1  0.77097250  0.75476950  0.99180550  1
  O2-  O23  1  0.27097250  0.74523050  0.50819450  1
  O2-  O24  1  0.77097250  0.75476950  0.50819450  1
  O2-  O25  1  0.27097250  0.74523050  0.99180550  1
  O2-  O26  1  0.64854100  0.12959100  0.25000000  1
  O2-  O27  1  0.14854100  0.37040900  0.25000000  1
  O2-  O28  1  0.54874650  0.55503250  0.13783550  1
  O2-  O29  1  0.04874650  0.94496750  0.36216450  1
  O2-  O30  1  0.04874650  0.94496750  0.13783550  1
  O2-  O31  1  0.54874650  0.55503250  0.36216450  1
  O2-  O32  1  0.27097250  0.25476950  0.49180550  1
  O2-  O33  1  0.77097250  0.24523050  0.00819450  1
  O2-  O34  1  0.27097250  0.25476950  0.00819450  1
  O2-  O35  1  0.77097250  0.24523050  0.49180550  1
