# generated using pymatgen
data_Ba2LaBiO6
_symmetry_space_group_name_H-M   'P 1'
_cell_length_a   10.85266000
_cell_length_b   6.28938800
_cell_length_c   6.32250360
_cell_angle_alpha   90.00000000
_cell_angle_beta   125.05580832
_cell_angle_gamma   90.00000000
_symmetry_Int_Tables_number   1
_chemical_formula_structural   Ba2LaBiO6
_chemical_formula_sum   'Ba4 La2 Bi2 O12'
_cell_volume   353.26586996
_cell_formula_units_Z   2
loop_
 _symmetry_equiv_pos_site_id
 _symmetry_equiv_pos_as_xyz
  1  'x, y, z'
loop_
 _atom_type_symbol
 _atom_type_oxidation_number
  Ba2+  2.0
  La3+  3.0
  Bi5+  5.0
  O2-  -2.0
loop_
 _atom_site_type_symbol
 _atom_site_label
 _atom_site_symmetry_multiplicity
 _atom_site_fract_x
 _atom_site_fract_y
 _atom_site_fract_z
 _atom_site_occupancy
  Ba2+  Ba0  1  0.75136900  0.00000000  0.75903300  1
  Ba2+  Ba1  1  0.74863100  0.50000000  0.24096700  1
  Ba2+  Ba2  1  0.25136900  0.50000000  0.75903300  1
  Ba2+  Ba3  1  0.24863100  0.00000000  0.24096700  1
  La3+  La4  1  0.00000000  0.00000000  0.50000000  1
  La3+  La5  1  0.50000000  0.50000000  0.50000000  1
  Bi5+  Bi6  1  0.00000000  0.50000000  0.00000000  1
  Bi5+  Bi7  1  0.50000000  0.00000000  0.00000000  1
  O2-  O8  1  0.96015750  0.26100750  0.19699800  1
  O2-  O9  1  0.53984250  0.76100750  0.80300200  1
  O2-  O10  1  0.53984250  0.23899250  0.80300200  1
  O2-  O11  1  0.96015750  0.73899250  0.19699800  1
  O2-  O12  1  0.26336700  0.00000000  0.69165200  1
  O2-  O13  1  0.23663300  0.50000000  0.30834800  1
  O2-  O14  1  0.46015750  0.76100750  0.19699800  1
  O2-  O15  1  0.03984250  0.26100750  0.80300200  1
  O2-  O16  1  0.03984250  0.73899250  0.80300200  1
  O2-  O17  1  0.46015750  0.23899250  0.19699800  1
  O2-  O18  1  0.76336700  0.50000000  0.69165200  1
  O2-  O19  1  0.73663300  0.00000000  0.30834800  1
