# generated using pymatgen
data_Ba2LaSbO6
_symmetry_space_group_name_H-M   'P 1'
_cell_length_a   6.18921018
_cell_length_b   6.18921018
_cell_length_c   15.01891581
_cell_angle_alpha   90.00000000
_cell_angle_beta   90.00000000
_cell_angle_gamma   120.00000000
_symmetry_Int_Tables_number   1
_chemical_formula_structural   Ba2LaSbO6
_chemical_formula_sum   'Ba6 La3 Sb3 O18'
_cell_volume   498.24124505
_cell_formula_units_Z   3
loop_
 _symmetry_equiv_pos_site_id
 _symmetry_equiv_pos_as_xyz
  1  'x, y, z'
loop_
 _atom_type_symbol
 _atom_type_oxidation_number
  Ba2+  2.0
  La3+  3.0
  Sb5+  5.0
  O2-  -2.0
loop_
 _atom_site_type_symbol
 _atom_site_label
 _atom_site_symmetry_multiplicity
 _atom_site_fract_x
 _atom_site_fract_y
 _atom_site_fract_z
 _atom_site_occupancy
  Ba2+  Ba0  1  0.33333333  0.66666667  0.41513067  1
  Ba2+  Ba1  1  0.33333333  0.66666667  0.91820267  1
  Ba2+  Ba2  1  0.00000000  0.00000000  0.74846400  1
  Ba2+  Ba3  1  0.00000000  0.00000000  0.25153600  1
  Ba2+  Ba4  1  0.66666667  0.33333333  0.08179733  1
  Ba2+  Ba5  1  0.66666667  0.33333333  0.58486933  1
  La3+  La6  1  0.00000000  0.00000000  0.00000000  1
  La3+  La7  1  0.66666667  0.33333333  0.33333333  1
  La3+  La8  1  0.33333333  0.66666667  0.66666667  1
  Sb5+  Sb9  1  0.33333333  0.66666667  0.16666667  1
  Sb5+  Sb10  1  1.00000000  0.00000000  0.50000000  1
  Sb5+  Sb11  1  0.66666667  0.33333333  0.83333333  1
  O2-  O12  1  0.63850300  0.86119500  0.08902900  1
  O2-  O13  1  0.52786167  0.55602533  0.24430433  1
  O2-  O14  1  0.22269200  0.36149700  0.08902900  1
  O2-  O15  1  0.44397467  0.97183633  0.24430433  1
  O2-  O16  1  0.13880500  0.77730800  0.08902900  1
  O2-  O17  1  0.02816367  0.47213833  0.24430433  1
  O2-  O18  1  0.30516967  0.19452833  0.42236233  1
  O2-  O19  1  0.19452833  0.88935867  0.57763767  1
  O2-  O20  1  0.88935867  0.69483033  0.42236233  1
  O2-  O21  1  0.11064133  0.30516967  0.57763767  1
  O2-  O22  1  0.80547167  0.11064133  0.42236233  1
  O2-  O23  1  0.69483033  0.80547167  0.57763767  1
  O2-  O24  1  0.97183633  0.52786167  0.75569567  1
  O2-  O25  1  0.86119500  0.22269200  0.91097100  1
  O2-  O26  1  0.55602533  0.02816367  0.75569567  1
  O2-  O27  1  0.77730800  0.63850300  0.91097100  1
  O2-  O28  1  0.47213833  0.44397467  0.75569567  1
  O2-  O29  1  0.36149700  0.13880500  0.91097100  1
