# generated using pymatgen
data_Ba2MgGe2O7
_symmetry_space_group_name_H-M   'P 1'
_cell_length_a   8.49792500
_cell_length_b   8.49792500
_cell_length_c   5.62883900
_cell_angle_alpha   90.00000000
_cell_angle_beta   90.00000000
_cell_angle_gamma   90.00000000
_symmetry_Int_Tables_number   1
_chemical_formula_structural   Ba2MgGe2O7
_chemical_formula_sum   'Ba4 Mg2 Ge4 O14'
_cell_volume   406.48508469
_cell_formula_units_Z   2
loop_
 _symmetry_equiv_pos_site_id
 _symmetry_equiv_pos_as_xyz
  1  'x, y, z'
loop_
 _atom_type_symbol
 _atom_type_oxidation_number
  Ba2+  2.0
  Mg2+  2.0
  Ge4+  4.0
  O2-  -2.0
loop_
 _atom_site_type_symbol
 _atom_site_label
 _atom_site_symmetry_multiplicity
 _atom_site_fract_x
 _atom_site_fract_y
 _atom_site_fract_z
 _atom_site_occupancy
  Ba2+  Ba0  1  0.83484600  0.33484600  0.50858000  1
  Ba2+  Ba1  1  0.33484600  0.16515400  0.49142000  1
  Ba2+  Ba2  1  0.16515400  0.66515400  0.50858000  1
  Ba2+  Ba3  1  0.66515400  0.83484600  0.49142000  1
  Mg2+  Mg4  1  0.50000000  0.50000000  0.00000000  1
  Mg2+  Mg5  1  0.00000000  0.00000000  0.00000000  1
  Ge4+  Ge6  1  0.64099500  0.14099500  0.95822800  1
  Ge4+  Ge7  1  0.14099500  0.35900500  0.04177200  1
  Ge4+  Ge8  1  0.35900500  0.85900500  0.95822800  1
  Ge4+  Ge9  1  0.85900500  0.64099500  0.04177200  1
  O2-  O10  1  0.00000000  0.50000000  0.16147400  1
  O2-  O11  1  0.50000000  0.00000000  0.83852600  1
  O2-  O12  1  0.63904800  0.13904800  0.26838100  1
  O2-  O13  1  0.13904800  0.36095200  0.73161900  1
  O2-  O14  1  0.36095200  0.86095200  0.26838100  1
  O2-  O15  1  0.86095200  0.63904800  0.73161900  1
  O2-  O16  1  0.57948400  0.31659400  0.81476800  1
  O2-  O17  1  0.07948400  0.18340600  0.18523200  1
  O2-  O18  1  0.42051600  0.68340600  0.81476800  1
  O2-  O19  1  0.92051600  0.81659400  0.18523200  1
  O2-  O20  1  0.68340600  0.57948400  0.18523200  1
  O2-  O21  1  0.18340600  0.92051600  0.81476800  1
  O2-  O22  1  0.31659400  0.42051600  0.18523200  1
  O2-  O23  1  0.81659400  0.07948400  0.81476800  1
