# generated using pymatgen
data_Ba2TiO4
_symmetry_space_group_name_H-M   'P 1'
_cell_length_a   6.23985800
_cell_length_b   7.77455300
_cell_length_c   12.00413283
_cell_angle_alpha   90.00000000
_cell_angle_beta   117.38252713
_cell_angle_gamma   90.00000000
_symmetry_Int_Tables_number   1
_chemical_formula_structural   Ba2TiO4
_chemical_formula_sum   'Ba8 Ti4 O16'
_cell_volume   517.09724034
_cell_formula_units_Z   4
loop_
 _symmetry_equiv_pos_site_id
 _symmetry_equiv_pos_as_xyz
  1  'x, y, z'
loop_
 _atom_type_symbol
 _atom_type_oxidation_number
  Ba2+  2.0
  Ti4+  4.0
  O2-  -2.0
loop_
 _atom_site_type_symbol
 _atom_site_label
 _atom_site_symmetry_multiplicity
 _atom_site_fract_x
 _atom_site_fract_y
 _atom_site_fract_z
 _atom_site_occupancy
  Ba2+  Ba0  1  0.02443100  0.00304900  0.30097700  1
  Ba2+  Ba1  1  0.97556900  0.50304900  0.19902300  1
  Ba2+  Ba2  1  0.97556900  0.99695100  0.69902300  1
  Ba2+  Ba3  1  0.02443100  0.49695100  0.80097700  1
  Ba2+  Ba4  1  0.69482600  0.33961700  0.42679200  1
  Ba2+  Ba5  1  0.30517400  0.83961700  0.07320800  1
  Ba2+  Ba6  1  0.30517400  0.66038300  0.57320800  1
  Ba2+  Ba7  1  0.69482600  0.16038300  0.92679200  1
  Ti4+  Ti8  1  0.65564400  0.77986700  0.41658200  1
  Ti4+  Ti9  1  0.34435600  0.27986700  0.08341800  1
  Ti4+  Ti10  1  0.34435600  0.22013300  0.58341800  1
  Ti4+  Ti11  1  0.65564400  0.72013300  0.91658200  1
  O2-  O12  1  0.73465500  0.68059600  0.57042800  1
  O2-  O13  1  0.26534500  0.18059600  0.92957200  1
  O2-  O14  1  0.26534500  0.31940400  0.42957200  1
  O2-  O15  1  0.73465500  0.81940400  0.07042800  1
  O2-  O16  1  0.85695800  0.67483100  0.36300200  1
  O2-  O17  1  0.14304200  0.17483100  0.13699800  1
  O2-  O18  1  0.14304200  0.32516900  0.63699800  1
  O2-  O19  1  0.85695800  0.82516900  0.86300200  1
  O2-  O20  1  0.33373900  0.74440900  0.30883400  1
  O2-  O21  1  0.66626100  0.24440900  0.19116600  1
  O2-  O22  1  0.66626100  0.25559100  0.69116600  1
  O2-  O23  1  0.33373900  0.75559100  0.80883400  1
  O2-  O24  1  0.27539200  0.99279400  0.56351200  1
  O2-  O25  1  0.72460800  0.49279400  0.93648800  1
  O2-  O26  1  0.72460800  0.00720600  0.43648800  1
  O2-  O27  1  0.27539200  0.50720600  0.06351200  1
