# generated using pymatgen
data_Ba2YTaO6
_symmetry_space_group_name_H-M   'P 1'
_cell_length_a   6.02546400
_cell_length_b   6.02546400
_cell_length_c   8.56648600
_cell_angle_alpha   90.00000000
_cell_angle_beta   90.00000000
_cell_angle_gamma   90.00000000
_symmetry_Int_Tables_number   1
_chemical_formula_structural   Ba2YTaO6
_chemical_formula_sum   'Ba4 Y2 Ta2 O12'
_cell_volume   311.01669463
_cell_formula_units_Z   2
loop_
 _symmetry_equiv_pos_site_id
 _symmetry_equiv_pos_as_xyz
  1  'x, y, z'
loop_
 _atom_type_symbol
 _atom_type_oxidation_number
  Ba2+  2.0
  Y3+  3.0
  Ta5+  5.0
  O2-  -2.0
loop_
 _atom_site_type_symbol
 _atom_site_label
 _atom_site_symmetry_multiplicity
 _atom_site_fract_x
 _atom_site_fract_y
 _atom_site_fract_z
 _atom_site_occupancy
  Ba2+  Ba0  1  0.00000000  0.50000000  0.25000000  1
  Ba2+  Ba1  1  0.50000000  0.00000000  0.25000000  1
  Ba2+  Ba2  1  0.50000000  0.00000000  0.75000000  1
  Ba2+  Ba3  1  0.00000000  0.50000000  0.75000000  1
  Y3+  Y4  1  0.00000000  0.00000000  0.00000000  1
  Y3+  Y5  1  0.50000000  0.50000000  0.50000000  1
  Ta5+  Ta6  1  0.50000000  0.50000000  0.00000000  1
  Ta5+  Ta7  1  0.00000000  0.00000000  0.50000000  1
  O2-  O8  1  0.76140500  0.70898900  0.00000000  1
  O2-  O9  1  0.29101100  0.76140500  0.00000000  1
  O2-  O10  1  0.70898900  0.23859500  0.00000000  1
  O2-  O11  1  0.23859500  0.29101100  0.00000000  1
  O2-  O12  1  0.00000000  0.00000000  0.26449800  1
  O2-  O13  1  0.50000000  0.50000000  0.23550200  1
  O2-  O14  1  0.26140500  0.20898900  0.50000000  1
  O2-  O15  1  0.79101100  0.26140500  0.50000000  1
  O2-  O16  1  0.20898900  0.73859500  0.50000000  1
  O2-  O17  1  0.73859500  0.79101100  0.50000000  1
  O2-  O18  1  0.50000000  0.50000000  0.76449800  1
  O2-  O19  1  0.00000000  0.00000000  0.73550200  1
