# generated using pymatgen
data_Ba2ZrSnO6
_symmetry_space_group_name_H-M   'P 1'
_cell_length_a   8.43631200
_cell_length_b   8.43631200
_cell_length_c   8.43631200
_cell_angle_alpha   90.00000000
_cell_angle_beta   90.00000000
_cell_angle_gamma   90.00000000
_symmetry_Int_Tables_number   1
_chemical_formula_structural   Ba2ZrSnO6
_chemical_formula_sum   'Ba8 Zr4 Sn4 O24'
_cell_volume   600.42379979
_cell_formula_units_Z   4
loop_
 _symmetry_equiv_pos_site_id
 _symmetry_equiv_pos_as_xyz
  1  'x, y, z'
loop_
 _atom_type_symbol
 _atom_type_oxidation_number
  Ba2+  2.0
  Zr4+  4.0
  Sn4+  4.0
  O2-  -2.0
loop_
 _atom_site_type_symbol
 _atom_site_label
 _atom_site_symmetry_multiplicity
 _atom_site_fract_x
 _atom_site_fract_y
 _atom_site_fract_z
 _atom_site_occupancy
  Ba2+  Ba0  1  0.25000000  0.25000000  0.75000000  1
  Ba2+  Ba1  1  0.25000000  0.75000000  0.75000000  1
  Ba2+  Ba2  1  0.25000000  0.75000000  0.25000000  1
  Ba2+  Ba3  1  0.25000000  0.25000000  0.25000000  1
  Ba2+  Ba4  1  0.75000000  0.25000000  0.25000000  1
  Ba2+  Ba5  1  0.75000000  0.75000000  0.25000000  1
  Ba2+  Ba6  1  0.75000000  0.75000000  0.75000000  1
  Ba2+  Ba7  1  0.75000000  0.25000000  0.75000000  1
  Zr4+  Zr8  1  0.00000000  0.00000000  0.00000000  1
  Zr4+  Zr9  1  0.00000000  0.50000000  0.50000000  1
  Zr4+  Zr10  1  0.50000000  0.00000000  0.50000000  1
  Zr4+  Zr11  1  0.50000000  0.50000000  0.00000000  1
  Sn4+  Sn12  1  0.50000000  0.00000000  0.00000000  1
  Sn4+  Sn13  1  0.50000000  0.50000000  0.50000000  1
  Sn4+  Sn14  1  0.00000000  0.00000000  0.50000000  1
  Sn4+  Sn15  1  0.00000000  0.50000000  0.00000000  1
  O2-  O16  1  0.00000000  0.00000000  0.74870400  1
  O2-  O17  1  0.50000000  0.00000000  0.75129600  1
  O2-  O18  1  0.50000000  0.24870400  0.00000000  1
  O2-  O19  1  0.50000000  0.75129600  0.00000000  1
  O2-  O20  1  0.74870400  0.00000000  0.00000000  1
  O2-  O21  1  0.25129600  0.00000000  0.00000000  1
  O2-  O22  1  0.00000000  0.50000000  0.24870400  1
  O2-  O23  1  0.50000000  0.50000000  0.25129600  1
  O2-  O24  1  0.50000000  0.74870400  0.50000000  1
  O2-  O25  1  0.50000000  0.25129600  0.50000000  1
  O2-  O26  1  0.74870400  0.50000000  0.50000000  1
  O2-  O27  1  0.25129600  0.50000000  0.50000000  1
  O2-  O28  1  0.50000000  0.00000000  0.24870400  1
  O2-  O29  1  0.00000000  0.00000000  0.25129600  1
  O2-  O30  1  0.00000000  0.24870400  0.50000000  1
  O2-  O31  1  0.00000000  0.75129600  0.50000000  1
  O2-  O32  1  0.24870400  0.00000000  0.50000000  1
  O2-  O33  1  0.75129600  0.00000000  0.50000000  1
  O2-  O34  1  0.50000000  0.50000000  0.74870400  1
  O2-  O35  1  0.00000000  0.50000000  0.75129600  1
  O2-  O36  1  0.00000000  0.74870400  0.00000000  1
  O2-  O37  1  0.00000000  0.25129600  0.00000000  1
  O2-  O38  1  0.24870400  0.50000000  0.00000000  1
  O2-  O39  1  0.75129600  0.50000000  0.00000000  1
