# generated using pymatgen
data_Ba3MgTaNbO9
_symmetry_space_group_name_H-M   'P 1'
_cell_length_a   5.85185244
_cell_length_b   5.85185244
_cell_length_c   7.19077300
_cell_angle_alpha   90.00000000
_cell_angle_beta   90.00000000
_cell_angle_gamma   120.00000000
_symmetry_Int_Tables_number   1
_chemical_formula_structural   Ba3MgTaNbO9
_chemical_formula_sum   'Ba3 Mg1 Ta1 Nb1 O9'
_cell_volume   213.25191693
_cell_formula_units_Z   1
loop_
 _symmetry_equiv_pos_site_id
 _symmetry_equiv_pos_as_xyz
  1  'x, y, z'
loop_
 _atom_type_symbol
 _atom_type_oxidation_number
  Ba2+  2.0
  Mg2+  2.0
  Ta5+  5.0
  Nb5+  5.0
  O2-  -2.0
loop_
 _atom_site_type_symbol
 _atom_site_label
 _atom_site_symmetry_multiplicity
 _atom_site_fract_x
 _atom_site_fract_y
 _atom_site_fract_z
 _atom_site_occupancy
  Ba2+  Ba0  1  0.33333333  0.66666667  0.00044700  1
  Ba2+  Ba1  1  0.66666667  0.33333333  0.66477000  1
  Ba2+  Ba2  1  0.00000000  0.00000000  0.33472200  1
  Mg2+  Mg3  1  0.33333333  0.66666667  0.49853700  1
  Ta5+  Ta4  1  0.66666667  0.33333333  0.17653700  1
  Nb5+  Nb5  1  0.00000000  0.00000000  0.82223000  1
  O2-  O6  1  0.99017333  0.49508667  0.32442800  1
  O2-  O7  1  0.50491333  0.49508667  0.32442800  1
  O2-  O8  1  0.50491333  0.00982667  0.32442800  1
  O2-  O9  1  0.67527333  0.83763667  0.67542500  1
  O2-  O10  1  0.16236333  0.83763667  0.67542500  1
  O2-  O11  1  0.16236333  0.32472667  0.67542500  1
  O2-  O12  1  0.83219633  0.16780367  0.00106500  1
  O2-  O13  1  0.83219633  0.66439267  0.00106500  1
  O2-  O14  1  0.33560733  0.16780367  0.00106500  1
