# generated using pymatgen
data_Ba3NaSbO6
_symmetry_space_group_name_H-M   'P 1'
_cell_length_a   10.39944944
_cell_length_b   10.39944944
_cell_length_c   12.14036693
_cell_angle_alpha   90.00000000
_cell_angle_beta   90.00000000
_cell_angle_gamma   120.00000000
_symmetry_Int_Tables_number   1
_chemical_formula_structural   Ba3NaSbO6
_chemical_formula_sum   'Ba18 Na6 Sb6 O36'
_cell_volume   1137.05936704
_cell_formula_units_Z   6
loop_
 _symmetry_equiv_pos_site_id
 _symmetry_equiv_pos_as_xyz
  1  'x, y, z'
loop_
 _atom_type_symbol
 _atom_type_oxidation_number
  Ba2+  2.0
  Na+  1.0
  Sb5+  5.0
  O2-  -2.0
loop_
 _atom_site_type_symbol
 _atom_site_label
 _atom_site_symmetry_multiplicity
 _atom_site_fract_x
 _atom_site_fract_y
 _atom_site_fract_z
 _atom_site_occupancy
  Ba2+  Ba0  1  0.01717767  0.33333333  0.58333333  1
  Ba2+  Ba1  1  0.66666667  0.68384433  0.58333333  1
  Ba2+  Ba2  1  0.31615567  0.98282233  0.58333333  1
  Ba2+  Ba3  1  0.68384433  0.01717767  0.41666667  1
  Ba2+  Ba4  1  0.98282233  0.66666667  0.41666667  1
  Ba2+  Ba5  1  0.33333333  0.31615567  0.41666667  1
  Ba2+  Ba6  1  0.68384433  0.66666667  0.91666667  1
  Ba2+  Ba7  1  0.33333333  0.01717767  0.91666667  1
  Ba2+  Ba8  1  0.98282233  0.31615567  0.91666667  1
  Ba2+  Ba9  1  0.35051100  0.35051100  0.75000000  1
  Ba2+  Ba10  1  0.64948900  0.00000000  0.75000000  1
  Ba2+  Ba11  1  0.00000000  0.64948900  0.75000000  1
  Ba2+  Ba12  1  0.35051100  0.00000000  0.25000000  1
  Ba2+  Ba13  1  0.00000000  0.35051100  0.25000000  1
  Ba2+  Ba14  1  0.64948900  0.64948900  0.25000000  1
  Ba2+  Ba15  1  0.01717767  0.68384433  0.08333333  1
  Ba2+  Ba16  1  0.31615567  0.33333333  0.08333333  1
  Ba2+  Ba17  1  0.66666667  0.98282233  0.08333333  1
  Na+  Na18  1  0.00000000  0.00000000  0.25000000  1
  Na+  Na19  1  0.00000000  0.00000000  0.75000000  1
  Na+  Na20  1  0.66666667  0.33333333  0.58333333  1
  Na+  Na21  1  0.66666667  0.33333333  0.08333333  1
  Na+  Na22  1  0.33333333  0.66666667  0.91666667  1
  Na+  Na23  1  0.33333333  0.66666667  0.41666667  1
  Sb5+  Sb24  1  0.00000000  0.00000000  0.00000000  1
  Sb5+  Sb25  1  0.00000000  0.00000000  0.50000000  1
  Sb5+  Sb26  1  0.66666667  0.33333333  0.33333333  1
  Sb5+  Sb27  1  0.66666667  0.33333333  0.83333333  1
  Sb5+  Sb28  1  0.33333333  0.66666667  0.66666667  1
  Sb5+  Sb29  1  0.33333333  0.66666667  0.16666667  1
  O2-  O30  1  0.64877267  0.48385533  0.43208133  1
  O2-  O31  1  0.51614467  0.16491733  0.43208133  1
  O2-  O32  1  0.83508267  0.35122733  0.43208133  1
  O2-  O33  1  0.98210600  0.83158400  0.59874800  1
  O2-  O34  1  0.16841600  0.15052200  0.59874800  1
  O2-  O35  1  0.84947800  0.01789400  0.59874800  1
  O2-  O36  1  0.35122733  0.51614467  0.56791867  1
  O2-  O37  1  0.48385533  0.83508267  0.56791867  1
  O2-  O38  1  0.16491733  0.64877267  0.56791867  1
  O2-  O39  1  0.01789400  0.16841600  0.40125200  1
  O2-  O40  1  0.83158400  0.84947800  0.40125200  1
  O2-  O41  1  0.15052200  0.98210600  0.40125200  1
  O2-  O42  1  0.31543933  0.81718867  0.76541467  1
  O2-  O43  1  0.18281133  0.49825067  0.76541467  1
  O2-  O44  1  0.50174933  0.68456067  0.76541467  1
  O2-  O45  1  0.64877267  0.16491733  0.93208133  1
  O2-  O46  1  0.83508267  0.48385533  0.93208133  1
  O2-  O47  1  0.51614467  0.35122733  0.93208133  1
  O2-  O48  1  0.01789400  0.84947800  0.90125200  1
  O2-  O49  1  0.15052200  0.16841600  0.90125200  1
  O2-  O50  1  0.83158400  0.98210600  0.90125200  1
  O2-  O51  1  0.68456067  0.50174933  0.73458533  1
  O2-  O52  1  0.49825067  0.18281133  0.73458533  1
  O2-  O53  1  0.81718867  0.31543933  0.73458533  1
  O2-  O54  1  0.98210600  0.15052200  0.09874800  1
  O2-  O55  1  0.84947800  0.83158400  0.09874800  1
  O2-  O56  1  0.16841600  0.01789400  0.09874800  1
  O2-  O57  1  0.31543933  0.49825067  0.26541467  1
  O2-  O58  1  0.50174933  0.81718867  0.26541467  1
  O2-  O59  1  0.18281133  0.68456067  0.26541467  1
  O2-  O60  1  0.68456067  0.18281133  0.23458533  1
  O2-  O61  1  0.81718867  0.50174933  0.23458533  1
  O2-  O62  1  0.49825067  0.31543933  0.23458533  1
  O2-  O63  1  0.35122733  0.83508267  0.06791867  1
  O2-  O64  1  0.16491733  0.51614467  0.06791867  1
  O2-  O65  1  0.48385533  0.64877267  0.06791867  1
