# generated using pymatgen
data_Ba3NaBiO6
_symmetry_space_group_name_H-M   'P 1'
_cell_length_a   10.56225374
_cell_length_b   10.56225374
_cell_length_c   12.32826734
_cell_angle_alpha   90.00000000
_cell_angle_beta   90.00000000
_cell_angle_gamma   120.00000000
_symmetry_Int_Tables_number   1
_chemical_formula_structural   Ba3NaBiO6
_chemical_formula_sum   'Ba18 Na6 Bi6 O36'
_cell_volume   1191.09353848
_cell_formula_units_Z   6
loop_
 _symmetry_equiv_pos_site_id
 _symmetry_equiv_pos_as_xyz
  1  'x, y, z'
loop_
 _atom_type_symbol
 _atom_type_oxidation_number
  Ba2+  2.0
  Na+  1.0
  Bi5+  5.0
  O2-  -2.0
loop_
 _atom_site_type_symbol
 _atom_site_label
 _atom_site_symmetry_multiplicity
 _atom_site_fract_x
 _atom_site_fract_y
 _atom_site_fract_z
 _atom_site_occupancy
  Ba2+  Ba0  1  0.31556967  0.33333333  0.58333333  1
  Ba2+  Ba1  1  0.68443033  0.66666667  0.41666667  1
  Ba2+  Ba2  1  0.01776367  0.68443033  0.58333333  1
  Ba2+  Ba3  1  0.33333333  0.01776367  0.41666667  1
  Ba2+  Ba4  1  0.98223633  0.31556967  0.41666667  1
  Ba2+  Ba5  1  0.66666667  0.98223633  0.58333333  1
  Ba2+  Ba6  1  0.98223633  0.66666667  0.91666667  1
  Ba2+  Ba7  1  0.35109700  0.00000000  0.75000000  1
  Ba2+  Ba8  1  0.68443033  0.01776367  0.91666667  1
  Ba2+  Ba9  1  0.00000000  0.35109700  0.75000000  1
  Ba2+  Ba10  1  0.64890300  0.64890300  0.75000000  1
  Ba2+  Ba11  1  0.33333333  0.31556967  0.91666667  1
  Ba2+  Ba12  1  0.64890300  0.00000000  0.25000000  1
  Ba2+  Ba13  1  0.01776367  0.33333333  0.08333333  1
  Ba2+  Ba14  1  0.35109700  0.35109700  0.25000000  1
  Ba2+  Ba15  1  0.66666667  0.68443033  0.08333333  1
  Ba2+  Ba16  1  0.31556967  0.98223633  0.08333333  1
  Ba2+  Ba17  1  0.00000000  0.64890300  0.25000000  1
  Na+  Na18  1  0.00000000  0.00000000  0.75000000  1
  Na+  Na19  1  0.00000000  0.00000000  0.25000000  1
  Na+  Na20  1  0.66666667  0.33333333  0.08333333  1
  Na+  Na21  1  0.66666667  0.33333333  0.58333333  1
  Na+  Na22  1  0.33333333  0.66666667  0.41666667  1
  Na+  Na23  1  0.33333333  0.66666667  0.91666667  1
  Bi5+  Bi24  1  0.00000000  0.00000000  0.00000000  1
  Bi5+  Bi25  1  0.00000000  0.00000000  0.50000000  1
  Bi5+  Bi26  1  0.66666667  0.33333333  0.33333333  1
  Bi5+  Bi27  1  0.66666667  0.33333333  0.83333333  1
  Bi5+  Bi28  1  0.33333333  0.66666667  0.66666667  1
  Bi5+  Bi29  1  0.33333333  0.66666667  0.16666667  1
  O2-  O30  1  0.35421000  0.84290400  0.56389100  1
  O2-  O31  1  0.15709600  0.51130600  0.56389100  1
  O2-  O32  1  0.51130600  0.35421000  0.43610900  1
  O2-  O33  1  0.48869400  0.64579000  0.56389100  1
  O2-  O34  1  0.97912333  0.15536067  0.60277567  1
  O2-  O35  1  0.17623733  0.02087667  0.60277567  1
  O2-  O36  1  0.64579000  0.15709600  0.43610900  1
  O2-  O37  1  0.84290400  0.48869400  0.43610900  1
  O2-  O38  1  0.15536067  0.17623733  0.39722433  1
  O2-  O39  1  0.02087667  0.84463933  0.39722433  1
  O2-  O40  1  0.82376267  0.97912333  0.39722433  1
  O2-  O41  1  0.84463933  0.82376267  0.60277567  1
  O2-  O42  1  0.02087667  0.17623733  0.89722433  1
  O2-  O43  1  0.82376267  0.84463933  0.89722433  1
  O2-  O44  1  0.17797267  0.68754333  0.76944233  1
  O2-  O45  1  0.15536067  0.97912333  0.89722433  1
  O2-  O46  1  0.64579000  0.48869400  0.93610900  1
  O2-  O47  1  0.84290400  0.35421000  0.93610900  1
  O2-  O48  1  0.31245667  0.49042933  0.76944233  1
  O2-  O49  1  0.50957067  0.82202733  0.76944233  1
  O2-  O50  1  0.82202733  0.50957067  0.73055767  1
  O2-  O51  1  0.68754333  0.17797267  0.73055767  1
  O2-  O52  1  0.49042933  0.31245667  0.73055767  1
  O2-  O53  1  0.51130600  0.15709600  0.93610900  1
  O2-  O54  1  0.68754333  0.50957067  0.23055767  1
  O2-  O55  1  0.49042933  0.17797267  0.23055767  1
  O2-  O56  1  0.84463933  0.02087667  0.10277567  1
  O2-  O57  1  0.82202733  0.31245667  0.23055767  1
  O2-  O58  1  0.31245667  0.82202733  0.26944233  1
  O2-  O59  1  0.50957067  0.68754333  0.26944233  1
  O2-  O60  1  0.97912333  0.82376267  0.10277567  1
  O2-  O61  1  0.17623733  0.15536067  0.10277567  1
  O2-  O62  1  0.48869400  0.84290400  0.06389100  1
  O2-  O63  1  0.35421000  0.51130600  0.06389100  1
  O2-  O64  1  0.15709600  0.64579000  0.06389100  1
  O2-  O65  1  0.17797267  0.49042933  0.26944233  1
