# generated using pymatgen
data_Ba3SrTa2O9
_symmetry_space_group_name_H-M   'P 1'
_cell_length_a   6.15079998
_cell_length_b   6.15079998
_cell_length_c   15.61389000
_cell_angle_alpha   90.00000000
_cell_angle_beta   90.00000000
_cell_angle_gamma   120.00000000
_symmetry_Int_Tables_number   1
_chemical_formula_structural   Ba3SrTa2O9
_chemical_formula_sum   'Ba6 Sr2 Ta4 O18'
_cell_volume   511.56986691
_cell_formula_units_Z   2
loop_
 _symmetry_equiv_pos_site_id
 _symmetry_equiv_pos_as_xyz
  1  'x, y, z'
loop_
 _atom_type_symbol
 _atom_type_oxidation_number
  Ba2+  2.0
  Sr2+  2.0
  Ta5+  5.0
  O2-  -2.0
loop_
 _atom_site_type_symbol
 _atom_site_label
 _atom_site_symmetry_multiplicity
 _atom_site_fract_x
 _atom_site_fract_y
 _atom_site_fract_z
 _atom_site_occupancy
  Ba2+  Ba0  1  0.00000000  0.00000000  0.75000000  1
  Ba2+  Ba1  1  0.00000000  0.00000000  0.25000000  1
  Ba2+  Ba2  1  0.66666667  0.33333333  0.61916900  1
  Ba2+  Ba3  1  0.33333333  0.66666667  0.11916900  1
  Ba2+  Ba4  1  0.33333333  0.66666667  0.38083100  1
  Ba2+  Ba5  1  0.66666667  0.33333333  0.88083100  1
  Sr2+  Sr6  1  0.00000000  0.00000000  0.50000000  1
  Sr2+  Sr7  1  0.00000000  0.00000000  0.00000000  1
  Ta5+  Ta8  1  0.66666667  0.33333333  0.34552100  1
  Ta5+  Ta9  1  0.33333333  0.66666667  0.84552100  1
  Ta5+  Ta10  1  0.33333333  0.66666667  0.65447900  1
  Ta5+  Ta11  1  0.66666667  0.33333333  0.15447900  1
  O2-  O12  1  0.04559700  0.47513100  0.75000000  1
  O2-  O13  1  0.57046600  0.04559700  0.25000000  1
  O2-  O14  1  0.47513100  0.42953400  0.25000000  1
  O2-  O15  1  0.52486900  0.57046600  0.75000000  1
  O2-  O16  1  0.42953400  0.95440300  0.75000000  1
  O2-  O17  1  0.95440300  0.52486900  0.25000000  1
  O2-  O18  1  0.64400600  0.88524800  0.59812500  1
  O2-  O19  1  0.75875800  0.64400600  0.09812500  1
  O2-  O20  1  0.88524800  0.24124200  0.09812500  1
  O2-  O21  1  0.11475200  0.75875800  0.59812500  1
  O2-  O22  1  0.24124200  0.35599400  0.59812500  1
  O2-  O23  1  0.35599400  0.11475200  0.09812500  1
  O2-  O24  1  0.35599400  0.11475200  0.40187500  1
  O2-  O25  1  0.24124200  0.35599400  0.90187500  1
  O2-  O26  1  0.11475200  0.75875800  0.90187500  1
  O2-  O27  1  0.88524800  0.24124200  0.40187500  1
  O2-  O28  1  0.75875800  0.64400600  0.40187500  1
  O2-  O29  1  0.64400600  0.88524800  0.90187500  1
