# generated using pymatgen
data_Ba3Sn2O7
_symmetry_space_group_name_H-M   'P 1'
_cell_length_a   5.95192200
_cell_length_b   21.75313200
_cell_length_c   5.94049600
_cell_angle_alpha   90.00000000
_cell_angle_beta   90.00000000
_cell_angle_gamma   90.00000000
_symmetry_Int_Tables_number   1
_chemical_formula_structural   Ba3Sn2O7
_chemical_formula_sum   'Ba12 Sn8 O28'
_cell_volume   769.13351140
_cell_formula_units_Z   4
loop_
 _symmetry_equiv_pos_site_id
 _symmetry_equiv_pos_as_xyz
  1  'x, y, z'
loop_
 _atom_type_symbol
 _atom_type_oxidation_number
  Ba2+  2.0
  Sn4+  4.0
  O2-  -2.0
loop_
 _atom_site_type_symbol
 _atom_site_label
 _atom_site_symmetry_multiplicity
 _atom_site_fract_x
 _atom_site_fract_y
 _atom_site_fract_z
 _atom_site_occupancy
  Ba2+  Ba0  1  0.75299500  0.18491700  0.75000000  1
  Ba2+  Ba1  1  0.24700500  0.18491700  0.25000000  1
  Ba2+  Ba2  1  0.74700500  0.31508300  0.25000000  1
  Ba2+  Ba3  1  0.25299500  0.31508300  0.75000000  1
  Ba2+  Ba4  1  0.25111300  0.00000000  0.25000000  1
  Ba2+  Ba5  1  0.74888700  0.00000000  0.75000000  1
  Ba2+  Ba6  1  0.25299500  0.68491700  0.75000000  1
  Ba2+  Ba7  1  0.74700500  0.68491700  0.25000000  1
  Ba2+  Ba8  1  0.24700500  0.81508300  0.25000000  1
  Ba2+  Ba9  1  0.75299500  0.81508300  0.75000000  1
  Ba2+  Ba10  1  0.75111300  0.50000000  0.25000000  1
  Ba2+  Ba11  1  0.24888700  0.50000000  0.75000000  1
  Sn4+  Sn12  1  0.75011650  0.09626850  0.25000000  1
  Sn4+  Sn13  1  0.24988350  0.09626850  0.75000000  1
  Sn4+  Sn14  1  0.74988350  0.40373150  0.75000000  1
  Sn4+  Sn15  1  0.25011650  0.40373150  0.25000000  1
  Sn4+  Sn16  1  0.25011650  0.59626850  0.25000000  1
  Sn4+  Sn17  1  0.74988350  0.59626850  0.75000000  1
  Sn4+  Sn18  1  0.24988350  0.90373150  0.75000000  1
  Sn4+  Sn19  1  0.75011650  0.90373150  0.25000000  1
  O2-  O20  1  0.00000000  0.09155400  0.00000000  1
  O2-  O21  1  0.00000000  0.09155400  0.50000000  1
  O2-  O22  1  0.50000000  0.09921500  0.50000000  1
  O2-  O23  1  0.50000000  0.09921500  0.00000000  1
  O2-  O24  1  0.76605000  0.19181000  0.25000000  1
  O2-  O25  1  0.23395000  0.19181000  0.75000000  1
  O2-  O26  1  0.26605000  0.30819000  0.25000000  1
  O2-  O27  1  0.73395000  0.30819000  0.75000000  1
  O2-  O28  1  0.00000000  0.40078500  0.00000000  1
  O2-  O29  1  0.00000000  0.40078500  0.50000000  1
  O2-  O30  1  0.50000000  0.40844600  0.50000000  1
  O2-  O31  1  0.50000000  0.40844600  0.00000000  1
  O2-  O32  1  0.27263100  0.00000000  0.75000000  1
  O2-  O33  1  0.72736900  0.00000000  0.25000000  1
  O2-  O34  1  0.50000000  0.59155400  0.00000000  1
  O2-  O35  1  0.50000000  0.59155400  0.50000000  1
  O2-  O36  1  0.00000000  0.59921500  0.50000000  1
  O2-  O37  1  0.00000000  0.59921500  0.00000000  1
  O2-  O38  1  0.26605000  0.69181000  0.25000000  1
  O2-  O39  1  0.73395000  0.69181000  0.75000000  1
  O2-  O40  1  0.76605000  0.80819000  0.25000000  1
  O2-  O41  1  0.23395000  0.80819000  0.75000000  1
  O2-  O42  1  0.50000000  0.90078500  0.00000000  1
  O2-  O43  1  0.50000000  0.90078500  0.50000000  1
  O2-  O44  1  0.00000000  0.90844600  0.50000000  1
  O2-  O45  1  0.00000000  0.90844600  0.00000000  1
  O2-  O46  1  0.77263100  0.50000000  0.75000000  1
  O2-  O47  1  0.22736900  0.50000000  0.25000000  1
