# generated using pymatgen
data_Ba3SrNb2O9
_symmetry_space_group_name_H-M   'P 1'
_cell_length_a   6.15082195
_cell_length_b   6.15082195
_cell_length_c   15.71980600
_cell_angle_alpha   90.00000000
_cell_angle_beta   90.00000000
_cell_angle_gamma   120.00000000
_symmetry_Int_Tables_number   1
_chemical_formula_structural   Ba3SrNb2O9
_chemical_formula_sum   'Ba6 Sr2 Nb4 O18'
_cell_volume   515.04375470
_cell_formula_units_Z   2
loop_
 _symmetry_equiv_pos_site_id
 _symmetry_equiv_pos_as_xyz
  1  'x, y, z'
loop_
 _atom_type_symbol
 _atom_type_oxidation_number
  Ba2+  2.0
  Sr2+  2.0
  Nb5+  5.0
  O2-  -2.0
loop_
 _atom_site_type_symbol
 _atom_site_label
 _atom_site_symmetry_multiplicity
 _atom_site_fract_x
 _atom_site_fract_y
 _atom_site_fract_z
 _atom_site_occupancy
  Ba2+  Ba0  1  0.00000000  0.00000000  0.75000000  1
  Ba2+  Ba1  1  0.00000000  0.00000000  0.25000000  1
  Ba2+  Ba2  1  0.66666667  0.33333333  0.62297800  1
  Ba2+  Ba3  1  0.33333333  0.66666667  0.12297800  1
  Ba2+  Ba4  1  0.33333333  0.66666667  0.37702200  1
  Ba2+  Ba5  1  0.66666667  0.33333333  0.87702200  1
  Sr2+  Sr6  1  0.00000000  0.00000000  0.50000000  1
  Sr2+  Sr7  1  0.00000000  0.00000000  0.00000000  1
  Nb5+  Nb8  1  0.66666667  0.33333333  0.34603100  1
  Nb5+  Nb9  1  0.33333333  0.66666667  0.84603100  1
  Nb5+  Nb10  1  0.33333333  0.66666667  0.65396900  1
  Nb5+  Nb11  1  0.66666667  0.33333333  0.15396900  1
  O2-  O12  1  0.04091400  0.47389500  0.75000000  1
  O2-  O13  1  0.56701900  0.04091400  0.25000000  1
  O2-  O14  1  0.47389500  0.43298100  0.25000000  1
  O2-  O15  1  0.52610500  0.56701900  0.75000000  1
  O2-  O16  1  0.43298100  0.95908600  0.75000000  1
  O2-  O17  1  0.95908600  0.52610500  0.25000000  1
  O2-  O18  1  0.64660000  0.88563200  0.59887800  1
  O2-  O19  1  0.76096800  0.64660000  0.09887800  1
  O2-  O20  1  0.88563200  0.23903200  0.09887800  1
  O2-  O21  1  0.11436800  0.76096800  0.59887800  1
  O2-  O22  1  0.23903200  0.35340000  0.59887800  1
  O2-  O23  1  0.35340000  0.11436800  0.09887800  1
  O2-  O24  1  0.35340000  0.11436800  0.40112200  1
  O2-  O25  1  0.23903200  0.35340000  0.90112200  1
  O2-  O26  1  0.11436800  0.76096800  0.90112200  1
  O2-  O27  1  0.88563200  0.23903200  0.40112200  1
  O2-  O28  1  0.76096800  0.64660000  0.40112200  1
  O2-  O29  1  0.64660000  0.88563200  0.90112200  1
