# generated using pymatgen
data_Ba3Ta2ZnO9
_symmetry_space_group_name_H-M   'P 1'
_cell_length_a   5.85220011
_cell_length_b   5.85220011
_cell_length_c   7.18502900
_cell_angle_alpha   90.00000000
_cell_angle_beta   90.00000000
_cell_angle_gamma   120.00000000
_symmetry_Int_Tables_number   1
_chemical_formula_structural   Ba3Ta2ZnO9
_chemical_formula_sum   'Ba3 Ta2 Zn1 O9'
_cell_volume   213.10689119
_cell_formula_units_Z   1
loop_
 _symmetry_equiv_pos_site_id
 _symmetry_equiv_pos_as_xyz
  1  'x, y, z'
loop_
 _atom_type_symbol
 _atom_type_oxidation_number
  Ba2+  2.0
  Ta5+  5.0
  Zn2+  2.0
  O2-  -2.0
loop_
 _atom_site_type_symbol
 _atom_site_label
 _atom_site_symmetry_multiplicity
 _atom_site_fract_x
 _atom_site_fract_y
 _atom_site_fract_z
 _atom_site_occupancy
  Ba2+  Ba0  1  0.33333333  0.66666667  0.66222500  1
  Ba2+  Ba1  1  0.66666667  0.33333333  0.33777500  1
  Ba2+  Ba2  1  0.00000000  0.00000000  0.00000000  1
  Ta5+  Ta3  1  0.33333333  0.66666667  0.17502000  1
  Ta5+  Ta4  1  0.66666667  0.33333333  0.82498000  1
  Zn2+  Zn5  1  0.00000000  0.00000000  0.50000000  1
  O2-  O6  1  0.17277900  0.82722100  0.32285100  1
  O2-  O7  1  0.82722100  0.17277900  0.67714900  1
  O2-  O8  1  0.17277900  0.34555800  0.32285100  1
  O2-  O9  1  0.82722100  0.65444200  0.67714900  1
  O2-  O10  1  0.65444200  0.82722100  0.32285100  1
  O2-  O11  1  0.34555800  0.17277900  0.67714900  1
  O2-  O12  1  0.50000000  0.00000000  0.00000000  1
  O2-  O13  1  0.00000000  0.50000000  0.00000000  1
  O2-  O14  1  0.50000000  0.50000000  0.00000000  1
