# generated using pymatgen
data_Ba3ZnSb2O9
_symmetry_space_group_name_H-M   'P 1'
_cell_length_a   5.94574173
_cell_length_b   5.94574173
_cell_length_c   14.67531200
_cell_angle_alpha   90.00000000
_cell_angle_beta   90.00000000
_cell_angle_gamma   120.00000000
_symmetry_Int_Tables_number   1
_chemical_formula_structural   Ba3ZnSb2O9
_chemical_formula_sum   'Ba6 Zn2 Sb4 O18'
_cell_volume   449.29341794
_cell_formula_units_Z   2
loop_
 _symmetry_equiv_pos_site_id
 _symmetry_equiv_pos_as_xyz
  1  'x, y, z'
loop_
 _atom_type_symbol
 _atom_type_oxidation_number
  Ba2+  2.0
  Zn2+  2.0
  Sb5+  5.0
  O2-  -2.0
loop_
 _atom_site_type_symbol
 _atom_site_label
 _atom_site_symmetry_multiplicity
 _atom_site_fract_x
 _atom_site_fract_y
 _atom_site_fract_z
 _atom_site_occupancy
  Ba2+  Ba0  1  0.66666667  0.33333333  0.58916900  1
  Ba2+  Ba1  1  0.33333333  0.66666667  0.41083100  1
  Ba2+  Ba2  1  0.33333333  0.66666667  0.08916900  1
  Ba2+  Ba3  1  0.66666667  0.33333333  0.91083100  1
  Ba2+  Ba4  1  0.00000000  0.00000000  0.75000000  1
  Ba2+  Ba5  1  0.00000000  0.00000000  0.25000000  1
  Zn2+  Zn6  1  0.00000000  0.00000000  0.50000000  1
  Zn2+  Zn7  1  0.00000000  0.00000000  0.00000000  1
  Sb5+  Sb8  1  0.66666667  0.33333333  0.15158600  1
  Sb5+  Sb9  1  0.33333333  0.66666667  0.84841400  1
  Sb5+  Sb10  1  0.33333333  0.66666667  0.65158600  1
  Sb5+  Sb11  1  0.66666667  0.33333333  0.34841400  1
  O2-  O12  1  0.03689600  0.51844800  0.75000000  1
  O2-  O13  1  0.96310400  0.48155200  0.25000000  1
  O2-  O14  1  0.48155200  0.51844800  0.75000000  1
  O2-  O15  1  0.51844800  0.48155200  0.25000000  1
  O2-  O16  1  0.48155200  0.96310400  0.75000000  1
  O2-  O17  1  0.51844800  0.03689600  0.25000000  1
  O2-  O18  1  0.33822400  0.16911200  0.08438700  1
  O2-  O19  1  0.66177600  0.83088800  0.91561300  1
  O2-  O20  1  0.83088800  0.16911200  0.08438700  1
  O2-  O21  1  0.66177600  0.83088800  0.58438700  1
  O2-  O22  1  0.16911200  0.83088800  0.91561300  1
  O2-  O23  1  0.33822400  0.16911200  0.41561300  1
  O2-  O24  1  0.83088800  0.66177600  0.08438700  1
  O2-  O25  1  0.16911200  0.83088800  0.58438700  1
  O2-  O26  1  0.16911200  0.33822400  0.91561300  1
  O2-  O27  1  0.83088800  0.16911200  0.41561300  1
  O2-  O28  1  0.16911200  0.33822400  0.58438700  1
  O2-  O29  1  0.83088800  0.66177600  0.41561300  1
