# generated using pymatgen
data_Ba3Zr2O7
_symmetry_space_group_name_H-M   'P 1'
_cell_length_a   4.25684400
_cell_length_b   4.25684400
_cell_length_c   22.09314400
_cell_angle_alpha   90.00000000
_cell_angle_beta   90.00000000
_cell_angle_gamma   90.00000000
_symmetry_Int_Tables_number   1
_chemical_formula_structural   Ba3Zr2O7
_chemical_formula_sum   'Ba6 Zr4 O14'
_cell_volume   400.34369491
_cell_formula_units_Z   2
loop_
 _symmetry_equiv_pos_site_id
 _symmetry_equiv_pos_as_xyz
  1  'x, y, z'
loop_
 _atom_type_symbol
 _atom_type_oxidation_number
  Ba2+  2.0
  Zr4+  4.0
  O2-  -2.0
loop_
 _atom_site_type_symbol
 _atom_site_label
 _atom_site_symmetry_multiplicity
 _atom_site_fract_x
 _atom_site_fract_y
 _atom_site_fract_z
 _atom_site_occupancy
  Ba2+  Ba0  1  0.00000000  0.00000000  0.00000000  1
  Ba2+  Ba1  1  0.50000000  0.50000000  0.31447700  1
  Ba2+  Ba2  1  0.00000000  0.00000000  0.18552300  1
  Ba2+  Ba3  1  0.50000000  0.50000000  0.50000000  1
  Ba2+  Ba4  1  0.00000000  0.00000000  0.81447700  1
  Ba2+  Ba5  1  0.50000000  0.50000000  0.68552300  1
  Zr4+  Zr6  1  0.50000000  0.50000000  0.09736600  1
  Zr4+  Zr7  1  0.00000000  0.00000000  0.40263400  1
  Zr4+  Zr8  1  0.00000000  0.00000000  0.59736600  1
  Zr4+  Zr9  1  0.50000000  0.50000000  0.90263400  1
  O2-  O10  1  0.50000000  0.00000000  0.09619300  1
  O2-  O11  1  0.50000000  0.50000000  0.00000000  1
  O2-  O12  1  0.50000000  0.50000000  0.19318900  1
  O2-  O13  1  0.50000000  0.00000000  0.40380700  1
  O2-  O14  1  0.00000000  0.50000000  0.09619300  1
  O2-  O15  1  0.00000000  0.00000000  0.30681100  1
  O2-  O16  1  0.00000000  0.50000000  0.40380700  1
  O2-  O17  1  0.00000000  0.50000000  0.59619300  1
  O2-  O18  1  0.00000000  0.00000000  0.50000000  1
  O2-  O19  1  0.00000000  0.00000000  0.69318900  1
  O2-  O20  1  0.00000000  0.50000000  0.90380700  1
  O2-  O21  1  0.50000000  0.00000000  0.59619300  1
  O2-  O22  1  0.50000000  0.50000000  0.80681100  1
  O2-  O23  1  0.50000000  0.00000000  0.90380700  1
