# generated using pymatgen
data_Ba4AgAuO6
_symmetry_space_group_name_H-M   'P 1'
_cell_length_a   5.89986800
_cell_length_b   13.40845800
_cell_length_c   11.63172500
_cell_angle_alpha   90.00000000
_cell_angle_beta   90.00000000
_cell_angle_gamma   90.00000000
_symmetry_Int_Tables_number   1
_chemical_formula_structural   Ba4AgAuO6
_chemical_formula_sum   'Ba16 Ag4 Au4 O24'
_cell_volume   920.16403999
_cell_formula_units_Z   4
loop_
 _symmetry_equiv_pos_site_id
 _symmetry_equiv_pos_as_xyz
  1  'x, y, z'
loop_
 _atom_type_symbol
 _atom_type_oxidation_number
  Ba2+  2.0
  Ag+  1.0
  Au3+  3.0
  O2-  -2.0
loop_
 _atom_site_type_symbol
 _atom_site_label
 _atom_site_symmetry_multiplicity
 _atom_site_fract_x
 _atom_site_fract_y
 _atom_site_fract_z
 _atom_site_occupancy
  Ba2+  Ba0  1  0.43289550  0.35427050  0.75000000  1
  Ba2+  Ba1  1  0.00000000  0.35375000  0.50000000  1
  Ba2+  Ba2  1  0.06710450  0.14572950  0.25000000  1
  Ba2+  Ba3  1  0.93289550  0.14572950  0.75000000  1
  Ba2+  Ba4  1  0.56710450  0.35427050  0.25000000  1
  Ba2+  Ba5  1  0.50000000  0.14625000  0.00000000  1
  Ba2+  Ba6  1  0.50000000  0.14625000  0.50000000  1
  Ba2+  Ba7  1  0.00000000  0.35375000  0.00000000  1
  Ba2+  Ba8  1  0.93289550  0.85427050  0.75000000  1
  Ba2+  Ba9  1  0.50000000  0.85375000  0.50000000  1
  Ba2+  Ba10  1  0.56710450  0.64572950  0.25000000  1
  Ba2+  Ba11  1  0.43289550  0.64572950  0.75000000  1
  Ba2+  Ba12  1  0.06710450  0.85427050  0.25000000  1
  Ba2+  Ba13  1  0.00000000  0.64625000  0.00000000  1
  Ba2+  Ba14  1  0.00000000  0.64625000  0.50000000  1
  Ba2+  Ba15  1  0.50000000  0.85375000  0.00000000  1
  Ag+  Ag16  1  0.59689300  0.00000000  0.25000000  1
  Ag+  Ag17  1  0.40310700  0.00000000  0.75000000  1
  Ag+  Ag18  1  0.09689300  0.50000000  0.25000000  1
  Ag+  Ag19  1  0.90310700  0.50000000  0.75000000  1
  Au3+  Au20  1  0.00000000  0.00000000  0.00000000  1
  Au3+  Au21  1  0.00000000  0.00000000  0.50000000  1
  Au3+  Au22  1  0.50000000  0.50000000  0.00000000  1
  Au3+  Au23  1  0.50000000  0.50000000  0.50000000  1
  O2-  O24  1  0.60066600  0.16001400  0.25000000  1
  O2-  O25  1  0.50000000  0.34532000  0.50000000  1
  O2-  O26  1  0.10066600  0.33998600  0.25000000  1
  O2-  O27  1  0.27039200  0.00000000  0.39100000  1
  O2-  O28  1  0.50000000  0.34532000  0.00000000  1
  O2-  O29  1  0.00000000  0.15468000  0.00000000  1
  O2-  O30  1  0.39933400  0.16001400  0.75000000  1
  O2-  O31  1  0.89933400  0.33998600  0.75000000  1
  O2-  O32  1  0.27039200  0.00000000  0.10900000  1
  O2-  O33  1  0.00000000  0.15468000  0.50000000  1
  O2-  O34  1  0.72960800  0.00000000  0.60900000  1
  O2-  O35  1  0.72960800  0.00000000  0.89100000  1
  O2-  O36  1  0.10066600  0.66001400  0.25000000  1
  O2-  O37  1  0.00000000  0.84532000  0.50000000  1
  O2-  O38  1  0.60066600  0.83998600  0.25000000  1
  O2-  O39  1  0.77039200  0.50000000  0.39100000  1
  O2-  O40  1  0.00000000  0.84532000  0.00000000  1
  O2-  O41  1  0.50000000  0.65468000  0.00000000  1
  O2-  O42  1  0.89933400  0.66001400  0.75000000  1
  O2-  O43  1  0.39933400  0.83998600  0.75000000  1
  O2-  O44  1  0.77039200  0.50000000  0.10900000  1
  O2-  O45  1  0.50000000  0.65468000  0.50000000  1
  O2-  O46  1  0.22960800  0.50000000  0.60900000  1
  O2-  O47  1  0.22960800  0.50000000  0.89100000  1
