# generated using pymatgen
data_Ba4InSbO8
_symmetry_space_group_name_H-M   'P 1'
_cell_length_a   5.99540000
_cell_length_b   13.42537800
_cell_length_c   6.00486800
_cell_angle_alpha   90.00000000
_cell_angle_beta   90.00000000
_cell_angle_gamma   90.00000000
_symmetry_Int_Tables_number   1
_chemical_formula_structural   Ba4InSbO8
_chemical_formula_sum   'Ba8 In2 Sb2 O16'
_cell_volume   483.33489538
_cell_formula_units_Z   2
loop_
 _symmetry_equiv_pos_site_id
 _symmetry_equiv_pos_as_xyz
  1  'x, y, z'
loop_
 _atom_type_symbol
 _atom_type_oxidation_number
  Ba2+  2.0
  In3+  3.0
  Sb5+  5.0
  O2-  -2.0
loop_
 _atom_site_type_symbol
 _atom_site_label
 _atom_site_symmetry_multiplicity
 _atom_site_fract_x
 _atom_site_fract_y
 _atom_site_fract_z
 _atom_site_occupancy
  Ba2+  Ba0  1  0.00000000  0.64570300  0.00000000  1
  Ba2+  Ba1  1  0.50000000  0.64514100  0.50000000  1
  Ba2+  Ba2  1  0.00000000  0.85485900  0.50000000  1
  Ba2+  Ba3  1  0.50000000  0.85429700  0.00000000  1
  Ba2+  Ba4  1  0.50000000  0.14570300  0.00000000  1
  Ba2+  Ba5  1  0.00000000  0.14514100  0.50000000  1
  Ba2+  Ba6  1  0.50000000  0.35485900  0.50000000  1
  Ba2+  Ba7  1  0.00000000  0.35429700  0.00000000  1
  In3+  In8  1  0.00000000  0.00000000  0.00000000  1
  In3+  In9  1  0.50000000  0.50000000  0.00000000  1
  Sb5+  Sb10  1  0.50000000  0.00000000  0.50000000  1
  Sb5+  Sb11  1  0.00000000  0.50000000  0.50000000  1
  O2-  O12  1  0.26133900  0.00000000  0.73605900  1
  O2-  O13  1  0.73866100  0.00000000  0.26394100  1
  O2-  O14  1  0.73866100  0.00000000  0.73605900  1
  O2-  O15  1  0.26133900  0.00000000  0.26394100  1
  O2-  O16  1  0.00000000  0.84030100  0.00000000  1
  O2-  O17  1  0.50000000  0.84732300  0.50000000  1
  O2-  O18  1  0.00000000  0.65267700  0.50000000  1
  O2-  O19  1  0.50000000  0.65969900  0.00000000  1
  O2-  O20  1  0.76133900  0.50000000  0.73605900  1
  O2-  O21  1  0.23866100  0.50000000  0.26394100  1
  O2-  O22  1  0.23866100  0.50000000  0.73605900  1
  O2-  O23  1  0.76133900  0.50000000  0.26394100  1
  O2-  O24  1  0.50000000  0.34030100  0.00000000  1
  O2-  O25  1  0.00000000  0.34732300  0.50000000  1
  O2-  O26  1  0.50000000  0.15267700  0.50000000  1
  O2-  O27  1  0.00000000  0.15969900  0.00000000  1
