# generated using pymatgen
data_Ba4Na(SbO4)3
_symmetry_space_group_name_H-M   'P 1'
_cell_length_a   8.41314400
_cell_length_b   8.41314400
_cell_length_c   8.41314400
_cell_angle_alpha   90.00000000
_cell_angle_beta   90.00000000
_cell_angle_gamma   90.00000000
_symmetry_Int_Tables_number   1
_chemical_formula_structural   Ba4Na(SbO4)3
_chemical_formula_sum   'Ba8 Na2 Sb6 O24'
_cell_volume   595.49067786
_cell_formula_units_Z   2
loop_
 _symmetry_equiv_pos_site_id
 _symmetry_equiv_pos_as_xyz
  1  'x, y, z'
loop_
 _atom_type_symbol
 _atom_type_oxidation_number
  Ba2+  2.0
  Na+  1.0
  Sb5+  5.0
  O2-  -2.0
loop_
 _atom_site_type_symbol
 _atom_site_label
 _atom_site_symmetry_multiplicity
 _atom_site_fract_x
 _atom_site_fract_y
 _atom_site_fract_z
 _atom_site_occupancy
  Ba2+  Ba0  1  0.25000000  0.75000000  0.25000000  1
  Ba2+  Ba1  1  0.75000000  0.25000000  0.25000000  1
  Ba2+  Ba2  1  0.25000000  0.25000000  0.75000000  1
  Ba2+  Ba3  1  0.25000000  0.25000000  0.25000000  1
  Ba2+  Ba4  1  0.75000000  0.25000000  0.75000000  1
  Ba2+  Ba5  1  0.25000000  0.75000000  0.75000000  1
  Ba2+  Ba6  1  0.75000000  0.75000000  0.25000000  1
  Ba2+  Ba7  1  0.75000000  0.75000000  0.75000000  1
  Na+  Na8  1  0.00000000  0.00000000  0.00000000  1
  Na+  Na9  1  0.50000000  0.50000000  0.50000000  1
  Sb5+  Sb10  1  0.50000000  0.00000000  0.00000000  1
  Sb5+  Sb11  1  0.00000000  0.00000000  0.50000000  1
  Sb5+  Sb12  1  0.00000000  0.50000000  0.00000000  1
  Sb5+  Sb13  1  0.00000000  0.50000000  0.50000000  1
  Sb5+  Sb14  1  0.50000000  0.50000000  0.00000000  1
  Sb5+  Sb15  1  0.50000000  0.00000000  0.50000000  1
  O2-  O16  1  0.00000000  0.00000000  0.72783900  1
  O2-  O17  1  0.00000000  0.27216100  0.00000000  1
  O2-  O18  1  0.00000000  0.72783900  0.00000000  1
  O2-  O19  1  0.72783900  0.00000000  0.00000000  1
  O2-  O20  1  0.27216100  0.00000000  0.00000000  1
  O2-  O21  1  0.00000000  0.00000000  0.27216100  1
  O2-  O22  1  0.50000000  0.00000000  0.25000000  1
  O2-  O23  1  0.00000000  0.25000000  0.50000000  1
  O2-  O24  1  0.00000000  0.50000000  0.25000000  1
  O2-  O25  1  0.25000000  0.50000000  0.00000000  1
  O2-  O26  1  0.25000000  0.00000000  0.50000000  1
  O2-  O27  1  0.50000000  0.25000000  0.00000000  1
  O2-  O28  1  0.50000000  0.50000000  0.22783900  1
  O2-  O29  1  0.50000000  0.77216100  0.50000000  1
  O2-  O30  1  0.50000000  0.22783900  0.50000000  1
  O2-  O31  1  0.22783900  0.50000000  0.50000000  1
  O2-  O32  1  0.77216100  0.50000000  0.50000000  1
  O2-  O33  1  0.50000000  0.50000000  0.77216100  1
  O2-  O34  1  0.00000000  0.50000000  0.75000000  1
  O2-  O35  1  0.50000000  0.75000000  0.00000000  1
  O2-  O36  1  0.50000000  0.00000000  0.75000000  1
  O2-  O37  1  0.75000000  0.00000000  0.50000000  1
  O2-  O38  1  0.75000000  0.50000000  0.00000000  1
  O2-  O39  1  0.00000000  0.75000000  0.50000000  1
