# generated using pymatgen
data_Ba4Nb2O9
_symmetry_space_group_name_H-M   'P 1'
_cell_length_a   6.18833167
_cell_length_b   6.18833167
_cell_length_c   16.78266800
_cell_angle_alpha   90.00000000
_cell_angle_beta   90.00000000
_cell_angle_gamma   120.00000000
_symmetry_Int_Tables_number   1
_chemical_formula_structural   Ba4Nb2O9
_chemical_formula_sum   'Ba8 Nb4 O18'
_cell_volume   556.59435783
_cell_formula_units_Z   2
loop_
 _symmetry_equiv_pos_site_id
 _symmetry_equiv_pos_as_xyz
  1  'x, y, z'
loop_
 _atom_type_symbol
 _atom_type_oxidation_number
  Ba2+  2.0
  Nb5+  5.0
  O2-  -2.0
loop_
 _atom_site_type_symbol
 _atom_site_label
 _atom_site_symmetry_multiplicity
 _atom_site_fract_x
 _atom_site_fract_y
 _atom_site_fract_z
 _atom_site_occupancy
  Ba2+  Ba0  1  0.00000000  0.00000000  0.75000000  1
  Ba2+  Ba1  1  0.00000000  0.00000000  0.25000000  1
  Ba2+  Ba2  1  0.66666667  0.33333333  0.63771000  1
  Ba2+  Ba3  1  0.33333333  0.66666667  0.13771000  1
  Ba2+  Ba4  1  0.33333333  0.66666667  0.36229000  1
  Ba2+  Ba5  1  0.66666667  0.33333333  0.86229000  1
  Ba2+  Ba6  1  0.00000000  0.00000000  0.50000000  1
  Ba2+  Ba7  1  0.00000000  0.00000000  0.00000000  1
  Nb5+  Nb8  1  0.66666667  0.33333333  0.34099000  1
  Nb5+  Nb9  1  0.33333333  0.66666667  0.84099000  1
  Nb5+  Nb10  1  0.33333333  0.66666667  0.65901000  1
  Nb5+  Nb11  1  0.66666667  0.33333333  0.15901000  1
  O2-  O12  1  0.53683400  0.95479700  0.75000000  1
  O2-  O13  1  0.04520300  0.58203700  0.75000000  1
  O2-  O14  1  0.41796300  0.46316600  0.75000000  1
  O2-  O15  1  0.46316600  0.04520300  0.25000000  1
  O2-  O16  1  0.95479700  0.41796300  0.25000000  1
  O2-  O17  1  0.58203700  0.53683400  0.25000000  1
  O2-  O18  1  0.10211700  0.35793200  0.60838900  1
  O2-  O19  1  0.64206800  0.74418500  0.60838900  1
  O2-  O20  1  0.25581500  0.89788300  0.60838900  1
  O2-  O21  1  0.89788300  0.64206800  0.10838900  1
  O2-  O22  1  0.35793200  0.25581500  0.10838900  1
  O2-  O23  1  0.74418500  0.10211700  0.10838900  1
  O2-  O24  1  0.89788300  0.64206800  0.39161100  1
  O2-  O25  1  0.35793200  0.25581500  0.39161100  1
  O2-  O26  1  0.74418500  0.10211700  0.39161100  1
  O2-  O27  1  0.10211700  0.35793200  0.89161100  1
  O2-  O28  1  0.64206800  0.74418500  0.89161100  1
  O2-  O29  1  0.25581500  0.89788300  0.89161100  1
