# generated using pymatgen
data_Ba4PdO6
_symmetry_space_group_name_H-M   'P 1'
_cell_length_a   10.38352588
_cell_length_b   10.38352588
_cell_length_c   12.85530607
_cell_angle_alpha   90.00000000
_cell_angle_beta   90.00000000
_cell_angle_gamma   120.00000000
_symmetry_Int_Tables_number   1
_chemical_formula_structural   Ba4PdO6
_chemical_formula_sum   'Ba24 Pd6 O36'
_cell_volume   1200.33578025
_cell_formula_units_Z   6
loop_
 _symmetry_equiv_pos_site_id
 _symmetry_equiv_pos_as_xyz
  1  'x, y, z'
loop_
 _atom_type_symbol
 _atom_type_oxidation_number
  Ba2+  2.0
  Pd4+  4.0
  O2-  -2.0
loop_
 _atom_site_type_symbol
 _atom_site_label
 _atom_site_symmetry_multiplicity
 _atom_site_fract_x
 _atom_site_fract_y
 _atom_site_fract_z
 _atom_site_occupancy
  Ba2+  Ba0  1  0.03936867  0.33333333  0.08333333  1
  Ba2+  Ba1  1  0.00000000  0.62729800  0.25000000  1
  Ba2+  Ba2  1  0.37270200  0.37270200  0.25000000  1
  Ba2+  Ba3  1  0.33333333  0.66666667  0.41666667  1
  Ba2+  Ba4  1  0.33333333  0.66666667  0.91666667  1
  Ba2+  Ba5  1  0.29396467  0.96063133  0.08333333  1
  Ba2+  Ba6  1  0.66666667  0.70603533  0.08333333  1
  Ba2+  Ba7  1  0.62729800  0.00000000  0.25000000  1
  Ba2+  Ba8  1  0.70603533  0.66666667  0.41666667  1
  Ba2+  Ba9  1  0.66666667  0.96063133  0.58333333  1
  Ba2+  Ba10  1  0.03936867  0.70603533  0.58333333  1
  Ba2+  Ba11  1  0.00000000  0.00000000  0.75000000  1
  Ba2+  Ba12  1  0.00000000  0.00000000  0.25000000  1
  Ba2+  Ba13  1  0.96063133  0.29396467  0.41666667  1
  Ba2+  Ba14  1  0.33333333  0.03936867  0.41666667  1
  Ba2+  Ba15  1  0.29396467  0.33333333  0.58333333  1
  Ba2+  Ba16  1  0.37270200  0.00000000  0.75000000  1
  Ba2+  Ba17  1  0.33333333  0.29396467  0.91666667  1
  Ba2+  Ba18  1  0.70603533  0.03936867  0.91666667  1
  Ba2+  Ba19  1  0.66666667  0.33333333  0.08333333  1
  Ba2+  Ba20  1  0.66666667  0.33333333  0.58333333  1
  Ba2+  Ba21  1  0.62729800  0.62729800  0.75000000  1
  Ba2+  Ba22  1  0.00000000  0.37270200  0.75000000  1
  Ba2+  Ba23  1  0.96063133  0.66666667  0.91666667  1
  Pd4+  Pd24  1  0.00000000  0.00000000  0.00000000  1
  Pd4+  Pd25  1  0.33333333  0.66666667  0.16666667  1
  Pd4+  Pd26  1  0.66666667  0.33333333  0.33333333  1
  Pd4+  Pd27  1  0.00000000  0.00000000  0.50000000  1
  Pd4+  Pd28  1  0.33333333  0.66666667  0.66666667  1
  Pd4+  Pd29  1  0.66666667  0.33333333  0.83333333  1
  O2-  O30  1  0.82060667  0.30895933  0.23868133  1
  O2-  O31  1  0.17831400  0.15394000  0.09465200  1
  O2-  O32  1  0.17939333  0.48835267  0.26131867  1
  O2-  O33  1  0.15501933  0.64229267  0.07201467  1
  O2-  O34  1  0.97562600  0.82168600  0.09465200  1
  O2-  O35  1  0.35770733  0.51272667  0.07201467  1
  O2-  O36  1  0.30895933  0.82060667  0.26131867  1
  O2-  O37  1  0.51164733  0.69104067  0.26131867  1
  O2-  O38  1  0.69104067  0.51164733  0.23868133  1
  O2-  O39  1  0.48727333  0.84498067  0.07201467  1
  O2-  O40  1  0.48835267  0.17939333  0.23868133  1
  O2-  O41  1  0.84606000  0.02437400  0.09465200  1
  O2-  O42  1  0.48727333  0.64229267  0.57201467  1
  O2-  O43  1  0.84498067  0.48727333  0.42798533  1
  O2-  O44  1  0.84606000  0.82168600  0.59465200  1
  O2-  O45  1  0.82168600  0.97562600  0.40534800  1
  O2-  O46  1  0.64229267  0.15501933  0.42798533  1
  O2-  O47  1  0.02437400  0.84606000  0.40534800  1
  O2-  O48  1  0.97562600  0.15394000  0.59465200  1
  O2-  O49  1  0.17831400  0.02437400  0.59465200  1
  O2-  O50  1  0.35770733  0.84498067  0.57201467  1
  O2-  O51  1  0.15394000  0.17831400  0.40534800  1
  O2-  O52  1  0.15501933  0.51272667  0.57201467  1
  O2-  O53  1  0.51272667  0.35770733  0.42798533  1
  O2-  O54  1  0.15394000  0.97562600  0.90534800  1
  O2-  O55  1  0.51164733  0.82060667  0.76131867  1
  O2-  O56  1  0.51272667  0.15501933  0.92798533  1
  O2-  O57  1  0.48835267  0.30895933  0.73868133  1
  O2-  O58  1  0.30895933  0.48835267  0.76131867  1
  O2-  O59  1  0.69104067  0.17939333  0.73868133  1
  O2-  O60  1  0.64229267  0.48727333  0.92798533  1
  O2-  O61  1  0.84498067  0.35770733  0.92798533  1
  O2-  O62  1  0.02437400  0.17831400  0.90534800  1
  O2-  O63  1  0.82060667  0.51164733  0.73868133  1
  O2-  O64  1  0.82168600  0.84606000  0.90534800  1
  O2-  O65  1  0.17939333  0.69104067  0.76131867  1
