# generated using pymatgen
data_BaBe2(BO3)2
_symmetry_space_group_name_H-M   'P 1'
_cell_length_a   6.43615400
_cell_length_b   11.86057600
_cell_length_c   13.04440600
_cell_angle_alpha   90.00000000
_cell_angle_beta   90.00000000
_cell_angle_gamma   90.00000000
_symmetry_Int_Tables_number   1
_chemical_formula_structural   BaBe2(BO3)2
_chemical_formula_sum   'Ba8 Be16 B16 O48'
_cell_volume   995.76421598
_cell_formula_units_Z   8
loop_
 _symmetry_equiv_pos_site_id
 _symmetry_equiv_pos_as_xyz
  1  'x, y, z'
loop_
 _atom_type_symbol
 _atom_type_oxidation_number
  Ba2+  2.0
  Be2+  2.0
  B3+  3.0
  O2-  -2.0
loop_
 _atom_site_type_symbol
 _atom_site_label
 _atom_site_symmetry_multiplicity
 _atom_site_fract_x
 _atom_site_fract_y
 _atom_site_fract_z
 _atom_site_occupancy
  Ba2+  Ba0  1  0.25000000  0.75000000  0.75000000  1
  Ba2+  Ba1  1  0.00000000  0.00000000  0.00000000  1
  Ba2+  Ba2  1  0.25000000  0.25000000  0.25000000  1
  Ba2+  Ba3  1  0.00000000  0.50000000  0.50000000  1
  Ba2+  Ba4  1  0.75000000  0.75000000  0.25000000  1
  Ba2+  Ba5  1  0.50000000  0.00000000  0.50000000  1
  Ba2+  Ba6  1  0.75000000  0.25000000  0.75000000  1
  Ba2+  Ba7  1  0.50000000  0.50000000  0.00000000  1
  Be2+  Be8  1  0.50000000  0.00000000  0.90747100  1
  Be2+  Be9  1  0.75000000  0.75000000  0.84252900  1
  Be2+  Be10  1  0.75000000  0.75000000  0.65747100  1
  Be2+  Be11  1  0.00000000  0.00000000  0.59252900  1
  Be2+  Be12  1  0.50000000  0.50000000  0.40747100  1
  Be2+  Be13  1  0.75000000  0.25000000  0.34252900  1
  Be2+  Be14  1  0.75000000  0.25000000  0.15747100  1
  Be2+  Be15  1  0.00000000  0.50000000  0.09252900  1
  Be2+  Be16  1  0.00000000  0.00000000  0.40747100  1
  Be2+  Be17  1  0.25000000  0.75000000  0.34252900  1
  Be2+  Be18  1  0.25000000  0.75000000  0.15747100  1
  Be2+  Be19  1  0.50000000  0.00000000  0.09252900  1
  Be2+  Be20  1  0.00000000  0.50000000  0.90747100  1
  Be2+  Be21  1  0.25000000  0.25000000  0.84252900  1
  Be2+  Be22  1  0.25000000  0.25000000  0.65747100  1
  Be2+  Be23  1  0.50000000  0.50000000  0.59252900  1
  B3+  B24  1  0.50000000  0.78592100  0.00000000  1
  B3+  B25  1  0.75000000  0.53592100  0.75000000  1
  B3+  B26  1  0.00000000  0.71407900  0.00000000  1
  B3+  B27  1  0.75000000  0.96407900  0.75000000  1
  B3+  B28  1  0.50000000  0.28592100  0.50000000  1
  B3+  B29  1  0.75000000  0.03592100  0.25000000  1
  B3+  B30  1  0.00000000  0.21407900  0.50000000  1
  B3+  B31  1  0.75000000  0.46407900  0.25000000  1
  B3+  B32  1  0.00000000  0.78592100  0.50000000  1
  B3+  B33  1  0.25000000  0.53592100  0.25000000  1
  B3+  B34  1  0.50000000  0.71407900  0.50000000  1
  B3+  B35  1  0.25000000  0.96407900  0.25000000  1
  B3+  B36  1  0.00000000  0.28592100  0.00000000  1
  B3+  B37  1  0.25000000  0.03592100  0.75000000  1
  B3+  B38  1  0.50000000  0.21407900  0.00000000  1
  B3+  B39  1  0.25000000  0.46407900  0.75000000  1
  O2-  O40  1  0.00000000  0.59734800  0.00000000  1
  O2-  O41  1  0.20459900  0.52218400  0.83882400  1
  O2-  O42  1  0.95459900  0.77218400  0.91117600  1
  O2-  O43  1  0.20459900  0.97781600  0.66117600  1
  O2-  O44  1  0.54540100  0.72781600  0.91117600  1
  O2-  O45  1  0.29540100  0.52218400  0.66117600  1
  O2-  O46  1  0.50000000  0.90265200  0.00000000  1
  O2-  O47  1  0.75000000  0.84734800  0.75000000  1
  O2-  O48  1  0.54540100  0.77218400  0.58882400  1
  O2-  O49  1  0.95459900  0.72781600  0.58882400  1
  O2-  O50  1  0.75000000  0.65265200  0.75000000  1
  O2-  O51  1  0.29540100  0.97781600  0.83882400  1
  O2-  O52  1  0.00000000  0.09734800  0.50000000  1
  O2-  O53  1  0.20459900  0.02218400  0.33882400  1
  O2-  O54  1  0.95459900  0.27218400  0.41117600  1
  O2-  O55  1  0.20459900  0.47781600  0.16117600  1
  O2-  O56  1  0.54540100  0.22781600  0.41117600  1
  O2-  O57  1  0.29540100  0.02218400  0.16117600  1
  O2-  O58  1  0.50000000  0.40265200  0.50000000  1
  O2-  O59  1  0.75000000  0.34734800  0.25000000  1
  O2-  O60  1  0.54540100  0.27218400  0.08882400  1
  O2-  O61  1  0.95459900  0.22781600  0.08882400  1
  O2-  O62  1  0.75000000  0.15265200  0.25000000  1
  O2-  O63  1  0.29540100  0.47781600  0.33882400  1
  O2-  O64  1  0.50000000  0.59734800  0.50000000  1
  O2-  O65  1  0.70459900  0.52218400  0.33882400  1
  O2-  O66  1  0.45459900  0.77218400  0.41117600  1
  O2-  O67  1  0.70459900  0.97781600  0.16117600  1
  O2-  O68  1  0.04540100  0.72781600  0.41117600  1
  O2-  O69  1  0.79540100  0.52218400  0.16117600  1
  O2-  O70  1  0.00000000  0.90265200  0.50000000  1
  O2-  O71  1  0.25000000  0.84734800  0.25000000  1
  O2-  O72  1  0.04540100  0.77218400  0.08882400  1
  O2-  O73  1  0.45459900  0.72781600  0.08882400  1
  O2-  O74  1  0.25000000  0.65265200  0.25000000  1
  O2-  O75  1  0.79540100  0.97781600  0.33882400  1
  O2-  O76  1  0.50000000  0.09734800  0.00000000  1
  O2-  O77  1  0.70459900  0.02218400  0.83882400  1
  O2-  O78  1  0.45459900  0.27218400  0.91117600  1
  O2-  O79  1  0.70459900  0.47781600  0.66117600  1
  O2-  O80  1  0.04540100  0.22781600  0.91117600  1
  O2-  O81  1  0.79540100  0.02218400  0.66117600  1
  O2-  O82  1  0.00000000  0.40265200  0.00000000  1
  O2-  O83  1  0.25000000  0.34734800  0.75000000  1
  O2-  O84  1  0.04540100  0.27218400  0.58882400  1
  O2-  O85  1  0.45459900  0.22781600  0.58882400  1
  O2-  O86  1  0.25000000  0.15265200  0.75000000  1
  O2-  O87  1  0.79540100  0.47781600  0.83882400  1
