# generated using pymatgen
data_BaGa2B2O7
_symmetry_space_group_name_H-M   'P 1'
_cell_length_a   8.78329400
_cell_length_b   11.87202800
_cell_length_c   5.92739000
_cell_angle_alpha   90.00000000
_cell_angle_beta   90.00000000
_cell_angle_gamma   90.00000000
_symmetry_Int_Tables_number   1
_chemical_formula_structural   BaGa2B2O7
_chemical_formula_sum   'Ba4 Ga8 B8 O28'
_cell_volume   618.08162885
_cell_formula_units_Z   4
loop_
 _symmetry_equiv_pos_site_id
 _symmetry_equiv_pos_as_xyz
  1  'x, y, z'
loop_
 _atom_type_symbol
 _atom_type_oxidation_number
  Ba2+  2.0
  Ga3+  3.0
  B3+  3.0
  O2-  -2.0
loop_
 _atom_site_type_symbol
 _atom_site_label
 _atom_site_symmetry_multiplicity
 _atom_site_fract_x
 _atom_site_fract_y
 _atom_site_fract_z
 _atom_site_occupancy
  Ba2+  Ba0  1  0.80555700  0.00000000  0.25000000  1
  Ba2+  Ba1  1  0.19444300  0.00000000  0.75000000  1
  Ba2+  Ba2  1  0.30555700  0.50000000  0.25000000  1
  Ba2+  Ba3  1  0.69444300  0.50000000  0.75000000  1
  Ga3+  Ga4  1  0.57911900  0.29042800  0.25000000  1
  Ga3+  Ga5  1  0.42088100  0.29042800  0.75000000  1
  Ga3+  Ga6  1  0.57911900  0.70957200  0.25000000  1
  Ga3+  Ga7  1  0.42088100  0.70957200  0.75000000  1
  Ga3+  Ga8  1  0.07911900  0.79042800  0.25000000  1
  Ga3+  Ga9  1  0.92088100  0.79042800  0.75000000  1
  Ga3+  Ga10  1  0.07911900  0.20957200  0.25000000  1
  Ga3+  Ga11  1  0.92088100  0.20957200  0.75000000  1
  B3+  B12  1  0.60835850  0.88929450  0.75000000  1
  B3+  B13  1  0.39164150  0.11070550  0.25000000  1
  B3+  B14  1  0.39164150  0.88929450  0.25000000  1
  B3+  B15  1  0.60835850  0.11070550  0.75000000  1
  B3+  B16  1  0.10835850  0.38929450  0.75000000  1
  B3+  B17  1  0.89164150  0.61070550  0.25000000  1
  B3+  B18  1  0.89164150  0.38929450  0.25000000  1
  B3+  B19  1  0.10835850  0.61070550  0.75000000  1
  O2-  O20  1  0.50000000  0.36550500  0.50000000  1
  O2-  O21  1  0.33226900  0.00000000  0.25000000  1
  O2-  O22  1  0.50000000  0.63449500  0.00000000  1
  O2-  O23  1  0.54575500  0.13271100  0.25000000  1
  O2-  O24  1  0.50000000  0.63449500  0.50000000  1
  O2-  O25  1  0.50000000  0.36550500  0.00000000  1
  O2-  O26  1  0.66773100  0.00000000  0.75000000  1
  O2-  O27  1  0.70908900  0.19800400  0.75000000  1
  O2-  O28  1  0.45424500  0.86728900  0.75000000  1
  O2-  O29  1  0.29091100  0.19800400  0.25000000  1
  O2-  O30  1  0.29091100  0.80199600  0.25000000  1
  O2-  O31  1  0.54575500  0.86728900  0.25000000  1
  O2-  O32  1  0.45424500  0.13271100  0.75000000  1
  O2-  O33  1  0.70908900  0.80199600  0.75000000  1
  O2-  O34  1  0.00000000  0.86550500  0.50000000  1
  O2-  O35  1  0.83226900  0.50000000  0.25000000  1
  O2-  O36  1  0.00000000  0.13449500  0.00000000  1
  O2-  O37  1  0.04575500  0.63271100  0.25000000  1
  O2-  O38  1  0.00000000  0.13449500  0.50000000  1
  O2-  O39  1  0.00000000  0.86550500  0.00000000  1
  O2-  O40  1  0.16773100  0.50000000  0.75000000  1
  O2-  O41  1  0.20908900  0.69800400  0.75000000  1
  O2-  O42  1  0.95424500  0.36728900  0.75000000  1
  O2-  O43  1  0.79091100  0.69800400  0.25000000  1
  O2-  O44  1  0.79091100  0.30199600  0.25000000  1
  O2-  O45  1  0.04575500  0.36728900  0.25000000  1
  O2-  O46  1  0.95424500  0.63271100  0.75000000  1
  O2-  O47  1  0.20908900  0.30199600  0.75000000  1
