# generated using pymatgen
data_BaGa4O7
_symmetry_space_group_name_H-M   'P 1'
_cell_length_a   13.84134400
_cell_length_b   9.50648800
_cell_length_c   5.85965503
_cell_angle_alpha   90.00000000
_cell_angle_beta   104.62801609
_cell_angle_gamma   90.00000000
_symmetry_Int_Tables_number   1
_chemical_formula_structural   BaGa4O7
_chemical_formula_sum   'Ba4 Ga16 O28'
_cell_volume   746.03620083
_cell_formula_units_Z   4
loop_
 _symmetry_equiv_pos_site_id
 _symmetry_equiv_pos_as_xyz
  1  'x, y, z'
loop_
 _atom_type_symbol
 _atom_type_oxidation_number
  Ba2+  2.0
  Ga3+  3.0
  O2-  -2.0
loop_
 _atom_site_type_symbol
 _atom_site_label
 _atom_site_symmetry_multiplicity
 _atom_site_fract_x
 _atom_site_fract_y
 _atom_site_fract_z
 _atom_site_occupancy
  Ba2+  Ba0  1  0.50000000  0.18998200  0.75000000  1
  Ba2+  Ba1  1  0.50000000  0.81001800  0.25000000  1
  Ba2+  Ba2  1  0.00000000  0.68998200  0.75000000  1
  Ba2+  Ba3  1  0.00000000  0.31001800  0.25000000  1
  Ga3+  Ga4  1  0.87985650  0.06447250  0.73163600  1
  Ga3+  Ga5  1  0.87985650  0.93552750  0.23163600  1
  Ga3+  Ga6  1  0.67366500  0.91334100  0.80103000  1
  Ga3+  Ga7  1  0.67366500  0.08665900  0.30103000  1
  Ga3+  Ga8  1  0.32633500  0.91334100  0.69897000  1
  Ga3+  Ga9  1  0.32633500  0.08665900  0.19897000  1
  Ga3+  Ga10  1  0.12014350  0.06447250  0.76836400  1
  Ga3+  Ga11  1  0.12014350  0.93552750  0.26836400  1
  Ga3+  Ga12  1  0.37985650  0.56447250  0.73163600  1
  Ga3+  Ga13  1  0.37985650  0.43552750  0.23163600  1
  Ga3+  Ga14  1  0.17366500  0.41334100  0.80103000  1
  Ga3+  Ga15  1  0.17366500  0.58665900  0.30103000  1
  Ga3+  Ga16  1  0.82633500  0.41334100  0.69897000  1
  Ga3+  Ga17  1  0.82633500  0.58665900  0.19897000  1
  Ga3+  Ga18  1  0.62014350  0.56447250  0.76836400  1
  Ga3+  Ga19  1  0.62014350  0.43552750  0.26836400  1
  O2-  O20  1  0.81380800  0.94223300  0.90260500  1
  O2-  O21  1  0.81380800  0.05776700  0.40260500  1
  O2-  O22  1  0.62220250  0.03843650  0.55308900  1
  O2-  O23  1  0.62631700  0.74400800  0.66692800  1
  O2-  O24  1  0.62220250  0.96156350  0.05308900  1
  O2-  O25  1  0.62631700  0.25599200  0.16692800  1
  O2-  O26  1  0.50000000  0.47657500  0.75000000  1
  O2-  O27  1  0.50000000  0.52342500  0.25000000  1
  O2-  O28  1  0.37368300  0.74400800  0.83307200  1
  O2-  O29  1  0.37779750  0.03843650  0.94691100  1
  O2-  O30  1  0.37368300  0.25599200  0.33307200  1
  O2-  O31  1  0.37779750  0.96156350  0.44691100  1
  O2-  O32  1  0.18619200  0.94223300  0.59739500  1
  O2-  O33  1  0.18619200  0.05776700  0.09739500  1
  O2-  O34  1  0.31380800  0.44223300  0.90260500  1
  O2-  O35  1  0.31380800  0.55776700  0.40260500  1
  O2-  O36  1  0.12220250  0.53843650  0.55308900  1
  O2-  O37  1  0.12631700  0.24400800  0.66692800  1
  O2-  O38  1  0.12220250  0.46156350  0.05308900  1
  O2-  O39  1  0.12631700  0.75599200  0.16692800  1
  O2-  O40  1  0.00000000  0.97657500  0.75000000  1
  O2-  O41  1  0.00000000  0.02342500  0.25000000  1
  O2-  O42  1  0.87368300  0.24400800  0.83307200  1
  O2-  O43  1  0.87779750  0.53843650  0.94691100  1
  O2-  O44  1  0.87368300  0.75599200  0.33307200  1
  O2-  O45  1  0.87779750  0.46156350  0.44691100  1
  O2-  O46  1  0.68619200  0.44223300  0.59739500  1
  O2-  O47  1  0.68619200  0.55776700  0.09739500  1
