# generated using pymatgen
data_BaHf(BO3)2
_symmetry_space_group_name_H-M   'P 1'
_cell_length_a   5.19131777
_cell_length_b   5.19131777
_cell_length_c   34.39898700
_cell_angle_alpha   90.00000000
_cell_angle_beta   90.00000000
_cell_angle_gamma   120.00000000
_symmetry_Int_Tables_number   1
_chemical_formula_structural   BaHf(BO3)2
_chemical_formula_sum   'Ba6 Hf6 B12 O36'
_cell_volume   802.84463988
_cell_formula_units_Z   6
loop_
 _symmetry_equiv_pos_site_id
 _symmetry_equiv_pos_as_xyz
  1  'x, y, z'
loop_
 _atom_type_symbol
 _atom_type_oxidation_number
  Ba2+  2.0
  Hf4+  4.0
  B3+  3.0
  O2-  -2.0
loop_
 _atom_site_type_symbol
 _atom_site_label
 _atom_site_symmetry_multiplicity
 _atom_site_fract_x
 _atom_site_fract_y
 _atom_site_fract_z
 _atom_site_occupancy
  Ba2+  Ba0  1  0.33333333  0.66666667  0.16657367  1
  Ba2+  Ba1  1  0.66666667  0.33333333  0.33324033  1
  Ba2+  Ba2  1  0.00000000  0.00000000  0.49990700  1
  Ba2+  Ba3  1  0.33333333  0.66666667  0.66657367  1
  Ba2+  Ba4  1  0.66666667  0.33333333  0.83324033  1
  Ba2+  Ba5  1  0.00000000  0.00000000  0.99990700  1
  Hf4+  Hf6  1  0.00000000  0.00000000  0.25094433  1
  Hf4+  Hf7  1  0.66666667  0.33333333  0.08427767  1
  Hf4+  Hf8  1  0.66666667  0.33333333  0.58427767  1
  Hf4+  Hf9  1  0.33333333  0.66666667  0.41761100  1
  Hf4+  Hf10  1  0.33333333  0.66666667  0.91761100  1
  Hf4+  Hf11  1  0.00000000  1.00000000  0.75094433  1
  B3+  B12  1  0.33333333  0.66666667  0.04974233  1
  B3+  B13  1  0.66666667  0.33333333  0.21640900  1
  B3+  B14  1  0.00000000  0.00000000  0.11960867  1
  B3+  B15  1  0.33333333  0.66666667  0.28627533  1
  B3+  B16  1  0.00000000  0.00000000  0.38307567  1
  B3+  B17  1  0.33333333  0.66666667  0.54974233  1
  B3+  B18  1  0.66666667  0.33333333  0.45294200  1
  B3+  B19  1  1.00000000  0.00000000  0.61960867  1
  B3+  B20  1  0.66666667  0.33333333  0.71640900  1
  B3+  B21  1  0.00000000  0.00000000  0.88307567  1
  B3+  B22  1  0.33333333  0.66666667  0.78627533  1
  B3+  B23  1  0.66666667  0.33333333  0.95294200  1
  O2-  O24  1  0.54508167  0.96533233  0.04892833  1
  O2-  O25  1  0.03466767  0.57974933  0.04892833  1
  O2-  O26  1  0.42025067  0.45491833  0.04892833  1
  O2-  O27  1  0.87841500  0.24641600  0.21559500  1
  O2-  O28  1  0.75358400  0.63199900  0.21559500  1
  O2-  O29  1  0.36800100  0.12158500  0.21559500  1
  O2-  O30  1  0.89794300  0.19950500  0.12066300  1
  O2-  O31  1  0.80049500  0.69843800  0.12066300  1
  O2-  O32  1  0.30156200  0.10205700  0.12066300  1
  O2-  O33  1  0.23127633  0.36510467  0.28732967  1
  O2-  O34  1  0.63489533  0.86617167  0.28732967  1
  O2-  O35  1  0.13382833  0.76872367  0.28732967  1
  O2-  O36  1  0.21174833  0.29866567  0.38226167  1
  O2-  O37  1  0.70133433  0.91308267  0.38226167  1
  O2-  O38  1  0.08691733  0.78825167  0.38226167  1
  O2-  O39  1  0.54508167  0.57974933  0.54892833  1
  O2-  O40  1  0.42025067  0.96533233  0.54892833  1
  O2-  O41  1  0.03466767  0.45491833  0.54892833  1
  O2-  O42  1  0.56460967  0.53283833  0.45399633  1
  O2-  O43  1  0.46716167  0.03177133  0.45399633  1
  O2-  O44  1  0.96822867  0.43539033  0.45399633  1
  O2-  O45  1  0.89794300  0.69843800  0.62066300  1
  O2-  O46  1  0.30156200  0.19950500  0.62066300  1
  O2-  O47  1  0.80049500  0.10205700  0.62066300  1
  O2-  O48  1  0.87841500  0.63199900  0.71559500  1
  O2-  O49  1  0.36800100  0.24641600  0.71559500  1
  O2-  O50  1  0.75358400  0.12158500  0.71559500  1
  O2-  O51  1  0.21174833  0.91308267  0.88226167  1
  O2-  O52  1  0.08691733  0.29866567  0.88226167  1
  O2-  O53  1  0.70133433  0.78825167  0.88226167  1
  O2-  O54  1  0.23127633  0.86617167  0.78732967  1
  O2-  O55  1  0.13382833  0.36510467  0.78732967  1
  O2-  O56  1  0.63489533  0.76872367  0.78732967  1
  O2-  O57  1  0.56460967  0.03177133  0.95399633  1
  O2-  O58  1  0.96822867  0.53283833  0.95399633  1
  O2-  O59  1  0.46716167  0.43539033  0.95399633  1
