# generated using pymatgen
data_BaHf(SiO3)3
_symmetry_space_group_name_H-M   'P 1'
_cell_length_a   6.83591161
_cell_length_b   6.83591161
_cell_length_c   10.11018000
_cell_angle_alpha   90.00000000
_cell_angle_beta   90.00000000
_cell_angle_gamma   120.00000000
_symmetry_Int_Tables_number   1
_chemical_formula_structural   BaHf(SiO3)3
_chemical_formula_sum   'Ba2 Hf2 Si6 O18'
_cell_volume   409.14985029
_cell_formula_units_Z   2
loop_
 _symmetry_equiv_pos_site_id
 _symmetry_equiv_pos_as_xyz
  1  'x, y, z'
loop_
 _atom_type_symbol
 _atom_type_oxidation_number
  Ba2+  2.0
  Hf4+  4.0
  Si4+  4.0
  O2-  -2.0
loop_
 _atom_site_type_symbol
 _atom_site_label
 _atom_site_symmetry_multiplicity
 _atom_site_fract_x
 _atom_site_fract_y
 _atom_site_fract_z
 _atom_site_occupancy
  Ba2+  Ba0  1  0.00000000  0.00000000  0.00000000  1
  Ba2+  Ba1  1  0.00000000  0.00000000  0.50000000  1
  Hf4+  Hf2  1  0.33333333  0.66666667  0.00000000  1
  Hf4+  Hf3  1  0.33333333  0.66666667  0.50000000  1
  Si4+  Si4  1  0.94754300  0.39387500  0.75000000  1
  Si4+  Si5  1  0.60612500  0.55366800  0.75000000  1
  Si4+  Si6  1  0.44633200  0.05245700  0.75000000  1
  Si4+  Si7  1  0.94754300  0.55366800  0.25000000  1
  Si4+  Si8  1  0.60612500  0.05245700  0.25000000  1
  Si4+  Si9  1  0.44633200  0.39387500  0.25000000  1
  O2-  O10  1  0.86132300  0.58117300  0.75000000  1
  O2-  O11  1  0.41882700  0.28015000  0.75000000  1
  O2-  O12  1  0.71985000  0.13867700  0.75000000  1
  O2-  O13  1  0.86132300  0.28015000  0.25000000  1
  O2-  O14  1  0.41882700  0.13867700  0.25000000  1
  O2-  O15  1  0.71985000  0.58117300  0.25000000  1
  O2-  O16  1  0.08722000  0.41088400  0.88380000  1
  O2-  O17  1  0.58911600  0.67633600  0.88380000  1
  O2-  O18  1  0.32366400  0.91278000  0.88380000  1
  O2-  O19  1  0.08722000  0.41088400  0.61620000  1
  O2-  O20  1  0.58911600  0.67633600  0.61620000  1
  O2-  O21  1  0.32366400  0.91278000  0.61620000  1
  O2-  O22  1  0.08722000  0.67633600  0.38380000  1
  O2-  O23  1  0.58911600  0.91278000  0.38380000  1
  O2-  O24  1  0.32366400  0.41088400  0.38380000  1
  O2-  O25  1  0.08722000  0.67633600  0.11620000  1
  O2-  O26  1  0.58911600  0.91278000  0.11620000  1
  O2-  O27  1  0.32366400  0.41088400  0.11620000  1
