# generated using pymatgen
data_BaLa2O4
_symmetry_space_group_name_H-M   'P 1'
_cell_length_a   10.54668400
_cell_length_b   10.54668400
_cell_length_c   10.54668400
_cell_angle_alpha   90.00000000
_cell_angle_beta   90.00000000
_cell_angle_gamma   90.00000000
_symmetry_Int_Tables_number   1
_chemical_formula_structural   BaLa2O4
_chemical_formula_sum   'Ba8 La16 O32'
_cell_volume   1173.13448571
_cell_formula_units_Z   8
loop_
 _symmetry_equiv_pos_site_id
 _symmetry_equiv_pos_as_xyz
  1  'x, y, z'
loop_
 _atom_type_symbol
 _atom_type_oxidation_number
  Ba2+  2.0
  La3+  3.0
  O2-  -2.0
loop_
 _atom_site_type_symbol
 _atom_site_label
 _atom_site_symmetry_multiplicity
 _atom_site_fract_x
 _atom_site_fract_y
 _atom_site_fract_z
 _atom_site_occupancy
  Ba2+  Ba0  1  0.50000000  0.00000000  0.50000000  1
  Ba2+  Ba1  1  0.25000000  0.25000000  0.25000000  1
  Ba2+  Ba2  1  0.50000000  0.50000000  0.00000000  1
  Ba2+  Ba3  1  0.25000000  0.75000000  0.75000000  1
  Ba2+  Ba4  1  0.00000000  0.00000000  0.00000000  1
  Ba2+  Ba5  1  0.75000000  0.25000000  0.75000000  1
  Ba2+  Ba6  1  0.00000000  0.50000000  0.50000000  1
  Ba2+  Ba7  1  0.75000000  0.75000000  0.25000000  1
  La3+  La8  1  0.12500000  0.62500000  0.12500000  1
  La3+  La9  1  0.37500000  0.62500000  0.37500000  1
  La3+  La10  1  0.12500000  0.87500000  0.37500000  1
  La3+  La11  1  0.37500000  0.87500000  0.12500000  1
  La3+  La12  1  0.12500000  0.12500000  0.62500000  1
  La3+  La13  1  0.37500000  0.12500000  0.87500000  1
  La3+  La14  1  0.12500000  0.37500000  0.87500000  1
  La3+  La15  1  0.37500000  0.37500000  0.62500000  1
  La3+  La16  1  0.62500000  0.62500000  0.62500000  1
  La3+  La17  1  0.87500000  0.62500000  0.87500000  1
  La3+  La18  1  0.62500000  0.87500000  0.87500000  1
  La3+  La19  1  0.87500000  0.87500000  0.62500000  1
  La3+  La20  1  0.62500000  0.12500000  0.12500000  1
  La3+  La21  1  0.87500000  0.12500000  0.37500000  1
  La3+  La22  1  0.62500000  0.37500000  0.37500000  1
  La3+  La23  1  0.87500000  0.37500000  0.12500000  1
  O2-  O24  1  0.64342267  0.14342267  0.35657733  1
  O2-  O25  1  0.85657733  0.14342267  0.14342267  1
  O2-  O26  1  0.14342267  0.85657733  0.14342267  1
  O2-  O27  1  0.39342267  0.39342267  0.39342267  1
  O2-  O28  1  0.35657733  0.85657733  0.35657733  1
  O2-  O29  1  0.10657733  0.39342267  0.10657733  1
  O2-  O30  1  0.39342267  0.10657733  0.10657733  1
  O2-  O31  1  0.10657733  0.10657733  0.39342267  1
  O2-  O32  1  0.64342267  0.64342267  0.85657733  1
  O2-  O33  1  0.85657733  0.64342267  0.64342267  1
  O2-  O34  1  0.14342267  0.35657733  0.64342267  1
  O2-  O35  1  0.39342267  0.89342267  0.89342267  1
  O2-  O36  1  0.35657733  0.35657733  0.85657733  1
  O2-  O37  1  0.10657733  0.89342267  0.60657733  1
  O2-  O38  1  0.39342267  0.60657733  0.60657733  1
  O2-  O39  1  0.10657733  0.60657733  0.89342267  1
  O2-  O40  1  0.14342267  0.14342267  0.85657733  1
  O2-  O41  1  0.35657733  0.14342267  0.64342267  1
  O2-  O42  1  0.64342267  0.85657733  0.64342267  1
  O2-  O43  1  0.89342267  0.39342267  0.89342267  1
  O2-  O44  1  0.85657733  0.85657733  0.85657733  1
  O2-  O45  1  0.60657733  0.39342267  0.60657733  1
  O2-  O46  1  0.89342267  0.10657733  0.60657733  1
  O2-  O47  1  0.60657733  0.10657733  0.89342267  1
  O2-  O48  1  0.14342267  0.64342267  0.35657733  1
  O2-  O49  1  0.35657733  0.64342267  0.14342267  1
  O2-  O50  1  0.64342267  0.35657733  0.14342267  1
  O2-  O51  1  0.89342267  0.89342267  0.39342267  1
  O2-  O52  1  0.85657733  0.35657733  0.35657733  1
  O2-  O53  1  0.60657733  0.89342267  0.10657733  1
  O2-  O54  1  0.89342267  0.60657733  0.10657733  1
  O2-  O55  1  0.60657733  0.60657733  0.39342267  1
