# generated using pymatgen
data_BaLa2PdO5
_symmetry_space_group_name_H-M   'P 1'
_cell_length_a   6.92370300
_cell_length_b   6.92370300
_cell_length_c   5.99747600
_cell_angle_alpha   90.00000000
_cell_angle_beta   90.00000000
_cell_angle_gamma   90.00000000
_symmetry_Int_Tables_number   1
_chemical_formula_structural   BaLa2PdO5
_chemical_formula_sum   'Ba2 La4 Pd2 O10'
_cell_volume   287.50498473
_cell_formula_units_Z   2
loop_
 _symmetry_equiv_pos_site_id
 _symmetry_equiv_pos_as_xyz
  1  'x, y, z'
loop_
 _atom_type_symbol
 _atom_type_oxidation_number
  Ba2+  2.0
  La3+  3.0
  Pd2+  2.0
  O2-  -2.0
loop_
 _atom_site_type_symbol
 _atom_site_label
 _atom_site_symmetry_multiplicity
 _atom_site_fract_x
 _atom_site_fract_y
 _atom_site_fract_z
 _atom_site_occupancy
  Ba2+  Ba0  1  0.50000000  0.50000000  0.00000000  1
  Ba2+  Ba1  1  0.00000000  0.00000000  0.00000000  1
  La3+  La2  1  0.67647000  0.17647000  0.50000000  1
  La3+  La3  1  0.32353000  0.82353000  0.50000000  1
  La3+  La4  1  0.17647000  0.32353000  0.50000000  1
  La3+  La5  1  0.82353000  0.67647000  0.50000000  1
  Pd2+  Pd6  1  0.50000000  0.00000000  0.00000000  1
  Pd2+  Pd7  1  0.00000000  0.50000000  0.00000000  1
  O2-  O8  1  0.85819100  0.35819100  0.24654200  1
  O2-  O9  1  0.14180900  0.64180900  0.24654200  1
  O2-  O10  1  0.35819100  0.14180900  0.24654200  1
  O2-  O11  1  0.64180900  0.85819100  0.24654200  1
  O2-  O12  1  0.14180900  0.64180900  0.75345800  1
  O2-  O13  1  0.85819100  0.35819100  0.75345800  1
  O2-  O14  1  0.64180900  0.85819100  0.75345800  1
  O2-  O15  1  0.35819100  0.14180900  0.75345800  1
  O2-  O16  1  0.50000000  0.50000000  0.50000000  1
  O2-  O17  1  0.00000000  0.00000000  0.50000000  1
