# generated using pymatgen
data_BaNaSc(BO3)2
_symmetry_space_group_name_H-M   'P 1'
_cell_length_a   5.29256414
_cell_length_b   5.29256414
_cell_length_c   34.88876421
_cell_angle_alpha   90.00000000
_cell_angle_beta   90.00000000
_cell_angle_gamma   120.00000000
_symmetry_Int_Tables_number   1
_chemical_formula_structural   BaNaSc(BO3)2
_chemical_formula_sum   'Ba6 Na6 Sc6 B12 O36'
_cell_volume   846.34703793
_cell_formula_units_Z   6
loop_
 _symmetry_equiv_pos_site_id
 _symmetry_equiv_pos_as_xyz
  1  'x, y, z'
loop_
 _atom_type_symbol
 _atom_type_oxidation_number
  Ba2+  2.0
  Na+  1.0
  Sc3+  3.0
  B3+  3.0
  O2-  -2.0
loop_
 _atom_site_type_symbol
 _atom_site_label
 _atom_site_symmetry_multiplicity
 _atom_site_fract_x
 _atom_site_fract_y
 _atom_site_fract_z
 _atom_site_occupancy
  Ba2+  Ba0  1  0.00000000  0.00000000  0.10316900  1
  Ba2+  Ba1  1  0.66666667  0.33333333  0.23016433  1
  Ba2+  Ba2  1  0.66666667  0.33333333  0.43650233  1
  Ba2+  Ba3  1  0.33333333  0.66666667  0.56349767  1
  Ba2+  Ba4  1  0.33333333  0.66666667  0.76983567  1
  Ba2+  Ba5  1  0.00000000  0.00000000  0.89683100  1
  Na+  Na6  1  0.33333333  0.66666667  0.04600367  1
  Na+  Na7  1  0.33333333  0.66666667  0.28732967  1
  Na+  Na8  1  0.00000000  0.00000000  0.37933700  1
  Na+  Na9  1  0.00000000  0.00000000  0.62066300  1
  Na+  Na10  1  0.66666667  0.33333333  0.71267033  1
  Na+  Na11  1  0.66666667  0.33333333  0.95399633  1
  Sc3+  Sc12  1  0.00000000  0.00000000  0.00000000  1
  Sc3+  Sc13  1  0.33333333  0.66666667  0.16666667  1
  Sc3+  Sc14  1  0.66666667  0.33333333  0.33333333  1
  Sc3+  Sc15  1  1.00000000  0.00000000  0.50000000  1
  Sc3+  Sc16  1  0.33333333  0.66666667  0.66666667  1
  Sc3+  Sc17  1  0.66666667  0.33333333  0.83333333  1
  B3+  B18  1  0.66666667  0.33333333  0.03753833  1
  B3+  B19  1  0.00000000  0.00000000  0.29579500  1
  B3+  B20  1  0.66666667  0.33333333  0.13038333  1
  B3+  B21  1  0.00000000  0.00000000  0.20295000  1
  B3+  B22  1  0.33333333  0.66666667  0.37087167  1
  B3+  B23  1  0.66666667  0.33333333  0.62912833  1
  B3+  B24  1  0.33333333  0.66666667  0.46371667  1
  B3+  B25  1  0.66666667  0.33333333  0.53628333  1
  B3+  B26  1  0.00000000  0.00000000  0.70420500  1
  B3+  B27  1  0.33333333  0.66666667  0.96246167  1
  B3+  B28  1  0.00000000  0.00000000  0.79705000  1
  B3+  B29  1  0.33333333  0.66666667  0.86961667  1
  O2-  O30  1  0.85322733  0.63377367  0.03739867  1
  O2-  O31  1  0.78054633  0.14677267  0.03739867  1
  O2-  O32  1  0.36622633  0.21945367  0.03739867  1
  O2-  O33  1  0.81343933  0.69955967  0.29593467  1
  O2-  O34  1  0.88612033  0.18656067  0.29593467  1
  O2-  O35  1  0.30044033  0.11387967  0.29593467  1
  O2-  O36  1  0.51567233  0.03185467  0.12986467  1
  O2-  O37  1  0.51618233  0.48432767  0.12986467  1
  O2-  O38  1  0.96814533  0.48381767  0.12986467  1
  O2-  O39  1  0.15099433  0.30147867  0.20346867  1
  O2-  O40  1  0.15048433  0.84900567  0.20346867  1
  O2-  O41  1  0.69852133  0.84951567  0.20346867  1
  O2-  O42  1  0.51989400  0.96710700  0.37073200  1
  O2-  O43  1  0.44721300  0.48010600  0.37073200  1
  O2-  O44  1  0.03289300  0.55278700  0.37073200  1
  O2-  O45  1  0.48010600  0.03289300  0.62926800  1
  O2-  O46  1  0.55278700  0.51989400  0.62926800  1
  O2-  O47  1  0.96710700  0.44721300  0.62926800  1
  O2-  O48  1  0.18233900  0.36518800  0.46319800  1
  O2-  O49  1  0.18284900  0.81766100  0.46319800  1
  O2-  O50  1  0.63481200  0.81715100  0.46319800  1
  O2-  O51  1  0.81766100  0.63481200  0.53680200  1
  O2-  O52  1  0.81715100  0.18233900  0.53680200  1
  O2-  O53  1  0.36518800  0.18284900  0.53680200  1
  O2-  O54  1  0.18656067  0.30044033  0.70406533  1
  O2-  O55  1  0.11387967  0.81343933  0.70406533  1
  O2-  O56  1  0.69955967  0.88612033  0.70406533  1
  O2-  O57  1  0.14677267  0.36622633  0.96260133  1
  O2-  O58  1  0.21945367  0.85322733  0.96260133  1
  O2-  O59  1  0.63377367  0.78054633  0.96260133  1
  O2-  O60  1  0.84900567  0.69852133  0.79653133  1
  O2-  O61  1  0.84951567  0.15099433  0.79653133  1
  O2-  O62  1  0.30147867  0.15048433  0.79653133  1
  O2-  O63  1  0.48432767  0.96814533  0.87013533  1
  O2-  O64  1  0.48381767  0.51567233  0.87013533  1
  O2-  O65  1  0.03185467  0.51618233  0.87013533  1
