# generated using pymatgen
data_BaNaBO3
_symmetry_space_group_name_H-M   'P 1'
_cell_length_a   9.69169200
_cell_length_b   5.63426600
_cell_length_c   6.26954803
_cell_angle_alpha   90.00000000
_cell_angle_beta   99.00744484
_cell_angle_gamma   90.00000000
_symmetry_Int_Tables_number   1
_chemical_formula_structural   BaNaBO3
_chemical_formula_sum   'Ba4 Na4 B4 O12'
_cell_volume   338.13036238
_cell_formula_units_Z   4
loop_
 _symmetry_equiv_pos_site_id
 _symmetry_equiv_pos_as_xyz
  1  'x, y, z'
loop_
 _atom_type_symbol
 _atom_type_oxidation_number
  Ba2+  2.0
  Na+  1.0
  B3+  3.0
  O2-  -2.0
loop_
 _atom_site_type_symbol
 _atom_site_label
 _atom_site_symmetry_multiplicity
 _atom_site_fract_x
 _atom_site_fract_y
 _atom_site_fract_z
 _atom_site_occupancy
  Ba2+  Ba0  1  0.16737200  0.00000000  0.24227500  1
  Ba2+  Ba1  1  0.83262800  0.00000000  0.75772500  1
  Ba2+  Ba2  1  0.66737200  0.50000000  0.24227500  1
  Ba2+  Ba3  1  0.33262800  0.50000000  0.75772500  1
  Na+  Na4  1  0.50000000  0.00000000  0.50000000  1
  Na+  Na5  1  0.50000000  0.00000000  0.00000000  1
  Na+  Na6  1  0.00000000  0.50000000  0.50000000  1
  Na+  Na7  1  0.00000000  0.50000000  0.00000000  1
  B3+  B8  1  0.16692500  0.00000000  0.75125000  1
  B3+  B9  1  0.83307500  0.00000000  0.24875000  1
  B3+  B10  1  0.66692500  0.50000000  0.75125000  1
  B3+  B11  1  0.33307500  0.50000000  0.24875000  1
  O2-  O12  1  0.39783150  0.28662350  0.20931000  1
  O2-  O13  1  0.60216850  0.28662350  0.79069000  1
  O2-  O14  1  0.60216850  0.71337650  0.79069000  1
  O2-  O15  1  0.39783150  0.71337650  0.20931000  1
  O2-  O16  1  0.29585100  0.00000000  0.67741500  1
  O2-  O17  1  0.70414900  0.00000000  0.32258500  1
  O2-  O18  1  0.89783150  0.78662350  0.20931000  1
  O2-  O19  1  0.10216850  0.78662350  0.79069000  1
  O2-  O20  1  0.10216850  0.21337650  0.79069000  1
  O2-  O21  1  0.89783150  0.21337650  0.20931000  1
  O2-  O22  1  0.79585100  0.50000000  0.67741500  1
  O2-  O23  1  0.20414900  0.50000000  0.32258500  1
