# generated using pymatgen
data_BaNb2O6
_symmetry_space_group_name_H-M   'P 1'
_cell_length_a   4.01042900
_cell_length_b   6.14093100
_cell_length_c   10.67622780
_cell_angle_alpha   90.00000000
_cell_angle_beta   90.34433291
_cell_angle_gamma   90.00000000
_symmetry_Int_Tables_number   1
_chemical_formula_structural   BaNb2O6
_chemical_formula_sum   'Ba2 Nb4 O12'
_cell_volume   262.92691068
_cell_formula_units_Z   2
loop_
 _symmetry_equiv_pos_site_id
 _symmetry_equiv_pos_as_xyz
  1  'x, y, z'
loop_
 _atom_type_symbol
 _atom_type_oxidation_number
  Ba2+  2.0
  Nb5+  5.0
  O2-  -2.0
loop_
 _atom_site_type_symbol
 _atom_site_label
 _atom_site_symmetry_multiplicity
 _atom_site_fract_x
 _atom_site_fract_y
 _atom_site_fract_z
 _atom_site_occupancy
  Ba2+  Ba0  1  0.00000000  0.00000000  0.00000000  1
  Ba2+  Ba1  1  0.00000000  0.50000000  0.50000000  1
  Nb5+  Nb2  1  0.46695600  0.45513500  0.84983900  1
  Nb5+  Nb3  1  0.53304400  0.95513500  0.65016100  1
  Nb5+  Nb4  1  0.53304400  0.54486500  0.15016100  1
  Nb5+  Nb5  1  0.46695600  0.04486500  0.34983900  1
  O2-  O6  1  0.99788100  0.41483900  0.84967100  1
  O2-  O7  1  0.00211900  0.91483900  0.65032900  1
  O2-  O8  1  0.00211900  0.58516100  0.15032900  1
  O2-  O9  1  0.99788100  0.08516100  0.34967100  1
  O2-  O10  1  0.50219300  0.11692100  0.80281600  1
  O2-  O11  1  0.49780700  0.61692100  0.69718400  1
  O2-  O12  1  0.50352000  0.19922700  0.53718900  1
  O2-  O13  1  0.49648000  0.69922700  0.96281100  1
  O2-  O14  1  0.49648000  0.80077300  0.46281100  1
  O2-  O15  1  0.50352000  0.30077300  0.03718900  1
  O2-  O16  1  0.50219300  0.38307900  0.30281600  1
  O2-  O17  1  0.49780700  0.88307900  0.19718400  1
