# generated using pymatgen
data_BAsO4
_symmetry_space_group_name_H-M   'P 1'
_cell_length_a   4.58571000
_cell_length_b   4.58571000
_cell_length_c   6.87849600
_cell_angle_alpha   90.00000000
_cell_angle_beta   90.00000000
_cell_angle_gamma   90.00000000
_symmetry_Int_Tables_number   1
_chemical_formula_structural   BAsO4
_chemical_formula_sum   'B2 As2 O8'
_cell_volume   144.64607786
_cell_formula_units_Z   2
loop_
 _symmetry_equiv_pos_site_id
 _symmetry_equiv_pos_as_xyz
  1  'x, y, z'
loop_
 _atom_type_symbol
 _atom_type_oxidation_number
  B3+  3.0
  As5+  5.0
  O2-  -2.0
loop_
 _atom_site_type_symbol
 _atom_site_label
 _atom_site_symmetry_multiplicity
 _atom_site_fract_x
 _atom_site_fract_y
 _atom_site_fract_z
 _atom_site_occupancy
  B3+  B0  1  0.50000000  0.00000000  0.25000000  1
  B3+  B1  1  0.00000000  0.50000000  0.75000000  1
  As5+  As2  1  0.00000000  0.00000000  0.00000000  1
  As5+  As3  1  0.50000000  0.50000000  0.50000000  1
  O2-  O4  1  0.27713100  0.15505100  0.13332900  1
  O2-  O5  1  0.65505100  0.22286900  0.36667100  1
  O2-  O6  1  0.72286900  0.84494900  0.13332900  1
  O2-  O7  1  0.34494900  0.77713100  0.36667100  1
  O2-  O8  1  0.77713100  0.65505100  0.63332900  1
  O2-  O9  1  0.15505100  0.72286900  0.86667100  1
  O2-  O10  1  0.22286900  0.34494900  0.63332900  1
  O2-  O11  1  0.84494900  0.27713100  0.86667100  1
