# generated using pymatgen
data_BaSr2Mg(SiO4)2
_symmetry_space_group_name_H-M   'P 1'
_cell_length_a   5.56375237
_cell_length_b   5.56375237
_cell_length_c   7.08880500
_cell_angle_alpha   90.00000000
_cell_angle_beta   90.00000000
_cell_angle_gamma   120.00000000
_symmetry_Int_Tables_number   1
_chemical_formula_structural   BaSr2Mg(SiO4)2
_chemical_formula_sum   'Ba1 Sr2 Mg1 Si2 O8'
_cell_volume   190.03747273
_cell_formula_units_Z   1
loop_
 _symmetry_equiv_pos_site_id
 _symmetry_equiv_pos_as_xyz
  1  'x, y, z'
loop_
 _atom_type_symbol
 _atom_type_oxidation_number
  Ba2+  2.0
  Sr2+  2.0
  Mg2+  2.0
  Si4+  4.0
  O2-  -2.0
loop_
 _atom_site_type_symbol
 _atom_site_label
 _atom_site_symmetry_multiplicity
 _atom_site_fract_x
 _atom_site_fract_y
 _atom_site_fract_z
 _atom_site_occupancy
  Ba2+  Ba0  1  0.00000000  0.00000000  0.50000000  1
  Sr2+  Sr1  1  0.66666667  0.33333333  0.16460600  1
  Sr2+  Sr2  1  0.33333333  0.66666667  0.83539400  1
  Mg2+  Mg3  1  0.00000000  0.00000000  0.00000000  1
  Si4+  Si4  1  0.66666667  0.33333333  0.72998500  1
  Si4+  Si5  1  0.33333333  0.66666667  0.27001500  1
  O2-  O6  1  0.66666667  0.33333333  0.50169600  1
  O2-  O7  1  0.33333333  0.66666667  0.49830400  1
  O2-  O8  1  0.35032900  0.17516450  0.82264300  1
  O2-  O9  1  0.82483550  0.64967100  0.82264300  1
  O2-  O10  1  0.82483550  0.17516450  0.82264300  1
  O2-  O11  1  0.64967100  0.82483550  0.17735700  1
  O2-  O12  1  0.17516450  0.35032900  0.17735700  1
  O2-  O13  1  0.17516450  0.82483550  0.17735700  1
