# generated using pymatgen
data_BaTi(AsO4)2
_symmetry_space_group_name_H-M   'P 1'
_cell_length_a   8.61062426
_cell_length_b   5.50965800
_cell_length_c   7.99141329
_cell_angle_alpha   90.00000000
_cell_angle_beta   93.20842333
_cell_angle_gamma   90.00000000
_symmetry_Int_Tables_number   1
_chemical_formula_structural   BaTi(AsO4)2
_chemical_formula_sum   'Ba2 Ti2 As4 O16'
_cell_volume   378.53113022
_cell_formula_units_Z   2
loop_
 _symmetry_equiv_pos_site_id
 _symmetry_equiv_pos_as_xyz
  1  'x, y, z'
loop_
 _atom_type_symbol
 _atom_type_oxidation_number
  Ba2+  2.0
  Ti4+  4.0
  As5+  5.0
  O2-  -2.0
loop_
 _atom_site_type_symbol
 _atom_site_label
 _atom_site_symmetry_multiplicity
 _atom_site_fract_x
 _atom_site_fract_y
 _atom_site_fract_z
 _atom_site_occupancy
  Ba2+  Ba0  1  0.00000000  0.00000000  0.50000000  1
  Ba2+  Ba1  1  0.50000000  0.50000000  0.50000000  1
  Ti4+  Ti2  1  0.00000000  0.00000000  0.00000000  1
  Ti4+  Ti3  1  0.50000000  0.50000000  0.00000000  1
  As5+  As4  1  0.63600600  0.00000000  0.79719300  1
  As5+  As5  1  0.36399400  0.00000000  0.20280700  1
  As5+  As6  1  0.13600600  0.50000000  0.79719300  1
  As5+  As7  1  0.86399400  0.50000000  0.20280700  1
  O2-  O8  1  0.69362800  0.00000000  0.59826700  1
  O2-  O9  1  0.30637200  0.00000000  0.40173300  1
  O2-  O10  1  0.52005550  0.74663050  0.82014700  1
  O2-  O11  1  0.47994450  0.25336950  0.17985300  1
  O2-  O12  1  0.47994450  0.74663050  0.17985300  1
  O2-  O13  1  0.52005550  0.25336950  0.82014700  1
  O2-  O14  1  0.77956700  0.00000000  0.95407400  1
  O2-  O15  1  0.22043300  0.00000000  0.04592600  1
  O2-  O16  1  0.19362800  0.50000000  0.59826700  1
  O2-  O17  1  0.80637200  0.50000000  0.40173300  1
  O2-  O18  1  0.02005550  0.24663050  0.82014700  1
  O2-  O19  1  0.97994450  0.75336950  0.17985300  1
  O2-  O20  1  0.97994450  0.24663050  0.17985300  1
  O2-  O21  1  0.02005550  0.75336950  0.82014700  1
  O2-  O22  1  0.27956700  0.50000000  0.95407400  1
  O2-  O23  1  0.72043300  0.50000000  0.04592600  1
