# generated using pymatgen
data_BaZn2Si2O7
_symmetry_space_group_name_H-M   'P 1'
_cell_length_a   7.99841400
_cell_length_b   13.08472600
_cell_length_c   6.71167100
_cell_angle_alpha   90.00000000
_cell_angle_beta   90.00000000
_cell_angle_gamma   90.00000000
_symmetry_Int_Tables_number   1
_chemical_formula_structural   BaZn2Si2O7
_chemical_formula_sum   'Ba4 Zn8 Si8 O28'
_cell_volume   702.42372518
_cell_formula_units_Z   4
loop_
 _symmetry_equiv_pos_site_id
 _symmetry_equiv_pos_as_xyz
  1  'x, y, z'
loop_
 _atom_type_symbol
 _atom_type_oxidation_number
  Ba2+  2.0
  Zn2+  2.0
  Si4+  4.0
  O2-  -2.0
loop_
 _atom_site_type_symbol
 _atom_site_label
 _atom_site_symmetry_multiplicity
 _atom_site_fract_x
 _atom_site_fract_y
 _atom_site_fract_z
 _atom_site_occupancy
  Ba2+  Ba0  1  0.22883500  0.00000000  0.25000000  1
  Ba2+  Ba1  1  0.77116500  0.00000000  0.75000000  1
  Ba2+  Ba2  1  0.72883500  0.50000000  0.25000000  1
  Ba2+  Ba3  1  0.27116500  0.50000000  0.75000000  1
  Zn2+  Zn4  1  0.50000000  0.77576800  0.50000000  1
  Zn2+  Zn5  1  0.50000000  0.22423200  0.50000000  1
  Zn2+  Zn6  1  0.50000000  0.77576800  0.00000000  1
  Zn2+  Zn7  1  0.50000000  0.22423200  0.00000000  1
  Zn2+  Zn8  1  0.00000000  0.27576800  0.50000000  1
  Zn2+  Zn9  1  0.00000000  0.72423200  0.50000000  1
  Zn2+  Zn10  1  0.00000000  0.27576800  0.00000000  1
  Zn2+  Zn11  1  0.00000000  0.72423200  0.00000000  1
  Si4+  Si12  1  0.20548950  0.88130950  0.75000000  1
  Si4+  Si13  1  0.20548950  0.11869050  0.75000000  1
  Si4+  Si14  1  0.79451050  0.88130950  0.25000000  1
  Si4+  Si15  1  0.79451050  0.11869050  0.25000000  1
  Si4+  Si16  1  0.70548950  0.38130950  0.75000000  1
  Si4+  Si17  1  0.70548950  0.61869050  0.75000000  1
  Si4+  Si18  1  0.29451050  0.38130950  0.25000000  1
  Si4+  Si19  1  0.29451050  0.61869050  0.25000000  1
  O2-  O20  1  0.46322050  0.30679350  0.25000000  1
  O2-  O21  1  0.68946000  0.13085900  0.45545300  1
  O2-  O22  1  0.53677950  0.30679350  0.75000000  1
  O2-  O23  1  0.68946000  0.13085900  0.04454700  1
  O2-  O24  1  0.53677950  0.69320650  0.75000000  1
  O2-  O25  1  0.11949900  0.00000000  0.75000000  1
  O2-  O26  1  0.31054000  0.86914100  0.54454700  1
  O2-  O27  1  0.68946000  0.86914100  0.45545300  1
  O2-  O28  1  0.31054000  0.86914100  0.95545300  1
  O2-  O29  1  0.31054000  0.13085900  0.95545300  1
  O2-  O30  1  0.88050100  0.00000000  0.25000000  1
  O2-  O31  1  0.68946000  0.86914100  0.04454700  1
  O2-  O32  1  0.31054000  0.13085900  0.54454700  1
  O2-  O33  1  0.46322050  0.69320650  0.25000000  1
  O2-  O34  1  0.96322050  0.80679350  0.25000000  1
  O2-  O35  1  0.18946000  0.63085900  0.45545300  1
  O2-  O36  1  0.03677950  0.80679350  0.75000000  1
  O2-  O37  1  0.18946000  0.63085900  0.04454700  1
  O2-  O38  1  0.03677950  0.19320650  0.75000000  1
  O2-  O39  1  0.61949900  0.50000000  0.75000000  1
  O2-  O40  1  0.81054000  0.36914100  0.54454700  1
  O2-  O41  1  0.18946000  0.36914100  0.45545300  1
  O2-  O42  1  0.81054000  0.36914100  0.95545300  1
  O2-  O43  1  0.81054000  0.63085900  0.95545300  1
  O2-  O44  1  0.38050100  0.50000000  0.25000000  1
  O2-  O45  1  0.18946000  0.36914100  0.04454700  1
  O2-  O46  1  0.81054000  0.63085900  0.54454700  1
  O2-  O47  1  0.96322050  0.19320650  0.25000000  1
