# generated using pymatgen
data_BiAsO4
_symmetry_space_group_name_H-M   'P 1'
_cell_length_a   6.83591300
_cell_length_b   7.28856700
_cell_length_c   8.38994656
_cell_angle_alpha   90.00000000
_cell_angle_beta   126.50220548
_cell_angle_gamma   90.00000000
_symmetry_Int_Tables_number   1
_chemical_formula_structural   BiAsO4
_chemical_formula_sum   'Bi4 As4 O16'
_cell_volume   336.01930099
_cell_formula_units_Z   4
loop_
 _symmetry_equiv_pos_site_id
 _symmetry_equiv_pos_as_xyz
  1  'x, y, z'
loop_
 _atom_type_symbol
 _atom_type_oxidation_number
  Bi3+  3.0
  As5+  5.0
  O2-  -2.0
loop_
 _atom_site_type_symbol
 _atom_site_label
 _atom_site_symmetry_multiplicity
 _atom_site_fract_x
 _atom_site_fract_y
 _atom_site_fract_z
 _atom_site_occupancy
  Bi3+  Bi0  1  0.20108200  0.36695300  0.78138400  1
  Bi3+  Bi1  1  0.79891800  0.86695300  0.71861600  1
  Bi3+  Bi2  1  0.79891800  0.63304700  0.21861600  1
  Bi3+  Bi3  1  0.20108200  0.13304700  0.28138400  1
  As5+  As4  1  0.68822400  0.33752400  0.79827100  1
  As5+  As5  1  0.31177600  0.83752400  0.70172900  1
  As5+  As6  1  0.31177600  0.66247600  0.20172900  1
  As5+  As7  1  0.68822400  0.16247600  0.29827100  1
  O2-  O8  1  0.38775400  0.29286700  0.60848100  1
  O2-  O9  1  0.61224600  0.79286700  0.89151900  1
  O2-  O10  1  0.61224600  0.70713300  0.39151900  1
  O2-  O11  1  0.38775400  0.20713300  0.10848100  1
  O2-  O12  1  0.63769200  0.39848000  0.97316300  1
  O2-  O13  1  0.36230800  0.89848000  0.52683700  1
  O2-  O14  1  0.36230800  0.60152000  0.02683700  1
  O2-  O15  1  0.63769200  0.10152000  0.47316300  1
  O2-  O16  1  0.84036900  0.00145600  0.26279700  1
  O2-  O17  1  0.15963100  0.50145600  0.23720300  1
  O2-  O18  1  0.15963100  0.99854400  0.73720300  1
  O2-  O19  1  0.84036900  0.49854400  0.76279700  1
  O2-  O20  1  0.86975800  0.35615300  0.39035600  1
  O2-  O21  1  0.13024200  0.85615300  0.10964400  1
  O2-  O22  1  0.13024200  0.64384700  0.60964400  1
  O2-  O23  1  0.86975800  0.14384700  0.89035600  1
