# generated using pymatgen
data_BiSbO4
_symmetry_space_group_name_H-M   'P 1'
_cell_length_a   12.13461600
_cell_length_b   4.98757200
_cell_length_c   5.60701742
_cell_angle_alpha   90.00000000
_cell_angle_beta   104.49002550
_cell_angle_gamma   90.00000000
_symmetry_Int_Tables_number   1
_chemical_formula_structural   BiSbO4
_chemical_formula_sum   'Bi4 Sb4 O16'
_cell_volume   328.55513426
_cell_formula_units_Z   4
loop_
 _symmetry_equiv_pos_site_id
 _symmetry_equiv_pos_as_xyz
  1  'x, y, z'
loop_
 _atom_type_symbol
 _atom_type_oxidation_number
  Bi3+  3.0
  Sb5+  5.0
  O2-  -2.0
loop_
 _atom_site_type_symbol
 _atom_site_label
 _atom_site_symmetry_multiplicity
 _atom_site_fract_x
 _atom_site_fract_y
 _atom_site_fract_z
 _atom_site_occupancy
  Bi3+  Bi0  1  0.00000000  0.26059700  0.25000000  1
  Bi3+  Bi1  1  0.00000000  0.73940300  0.75000000  1
  Bi3+  Bi2  1  0.50000000  0.76059700  0.25000000  1
  Bi3+  Bi3  1  0.50000000  0.23940300  0.75000000  1
  Sb5+  Sb4  1  0.25000000  0.25000000  0.00000000  1
  Sb5+  Sb5  1  0.25000000  0.75000000  0.50000000  1
  Sb5+  Sb6  1  0.75000000  0.75000000  0.00000000  1
  Sb5+  Sb7  1  0.75000000  0.25000000  0.50000000  1
  O2-  O8  1  0.40361800  0.90908600  0.53661600  1
  O2-  O9  1  0.09638200  0.40908600  0.96338400  1
  O2-  O10  1  0.09638200  0.59091400  0.46338400  1
  O2-  O11  1  0.40361800  0.09091400  0.03661600  1
  O2-  O12  1  0.31508950  0.53302650  0.81163000  1
  O2-  O13  1  0.18491050  0.03302650  0.68837000  1
  O2-  O14  1  0.18491050  0.96697350  0.18837000  1
  O2-  O15  1  0.31508950  0.46697350  0.31163000  1
  O2-  O16  1  0.90361800  0.40908600  0.53661600  1
  O2-  O17  1  0.59638200  0.90908600  0.96338400  1
  O2-  O18  1  0.59638200  0.09091400  0.46338400  1
  O2-  O19  1  0.90361800  0.59091400  0.03661600  1
  O2-  O20  1  0.81508950  0.03302650  0.81163000  1
  O2-  O21  1  0.68491050  0.53302650  0.68837000  1
  O2-  O22  1  0.68491050  0.46697350  0.18837000  1
  O2-  O23  1  0.81508950  0.96697350  0.31163000  1
