# generated using pymatgen
data_Ca(AgO2)2
_symmetry_space_group_name_H-M   'P 1'
_cell_length_a   6.05560800
_cell_length_b   6.05560800
_cell_length_c   10.20530800
_cell_angle_alpha   90.00000000
_cell_angle_beta   90.00000000
_cell_angle_gamma   90.00000000
_symmetry_Int_Tables_number   1
_chemical_formula_structural   Ca(AgO2)2
_chemical_formula_sum   'Ca4 Ag8 O16'
_cell_volume   374.23260657
_cell_formula_units_Z   4
loop_
 _symmetry_equiv_pos_site_id
 _symmetry_equiv_pos_as_xyz
  1  'x, y, z'
loop_
 _atom_type_symbol
 _atom_type_oxidation_number
  Ca2+  2.0
  Ag+  1.0
  O-  -1.0
loop_
 _atom_site_type_symbol
 _atom_site_label
 _atom_site_symmetry_multiplicity
 _atom_site_fract_x
 _atom_site_fract_y
 _atom_site_fract_z
 _atom_site_occupancy
  Ca2+  Ca0  1  0.00000000  0.50000000  0.25000000  1
  Ca2+  Ca1  1  0.00000000  0.00000000  0.00000000  1
  Ca2+  Ca2  1  0.50000000  0.00000000  0.75000000  1
  Ca2+  Ca3  1  0.50000000  0.50000000  0.50000000  1
  Ag+  Ag4  1  0.75000000  0.00000000  0.37500000  1
  Ag+  Ag5  1  0.25000000  0.00000000  0.37500000  1
  Ag+  Ag6  1  0.50000000  0.75000000  0.12500000  1
  Ag+  Ag7  1  0.50000000  0.25000000  0.12500000  1
  Ag+  Ag8  1  0.25000000  0.50000000  0.87500000  1
  Ag+  Ag9  1  0.75000000  0.50000000  0.87500000  1
  Ag+  Ag10  1  0.00000000  0.25000000  0.62500000  1
  Ag+  Ag11  1  0.00000000  0.75000000  0.62500000  1
  O-  O12  1  0.79614700  0.84780900  0.19898000  1
  O-  O13  1  0.65219100  0.29614700  0.30102000  1
  O-  O14  1  0.34780900  0.70385300  0.30102000  1
  O-  O15  1  0.79614700  0.34780900  0.05102000  1
  O-  O16  1  0.15219100  0.29614700  0.44898000  1
  O-  O17  1  0.84780900  0.70385300  0.44898000  1
  O-  O18  1  0.20385300  0.15219100  0.19898000  1
  O-  O19  1  0.20385300  0.65219100  0.05102000  1
  O-  O20  1  0.29614700  0.34780900  0.69898000  1
  O-  O21  1  0.15219100  0.79614700  0.80102000  1
  O-  O22  1  0.84780900  0.20385300  0.80102000  1
  O-  O23  1  0.29614700  0.84780900  0.55102000  1
  O-  O24  1  0.65219100  0.79614700  0.94898000  1
  O-  O25  1  0.34780900  0.20385300  0.94898000  1
  O-  O26  1  0.70385300  0.65219100  0.69898000  1
  O-  O27  1  0.70385300  0.15219100  0.55102000  1
