# generated using pymatgen
data_Ca(AuO2)2
_symmetry_space_group_name_H-M   'P 1'
_cell_length_a   6.10501400
_cell_length_b   6.10501400
_cell_length_c   10.22202800
_cell_angle_alpha   90.00000000
_cell_angle_beta   90.00000000
_cell_angle_gamma   90.00000000
_symmetry_Int_Tables_number   1
_chemical_formula_structural   Ca(AuO2)2
_chemical_formula_sum   'Ca4 Au8 O16'
_cell_volume   380.98720849
_cell_formula_units_Z   4
loop_
 _symmetry_equiv_pos_site_id
 _symmetry_equiv_pos_as_xyz
  1  'x, y, z'
loop_
 _atom_type_symbol
 _atom_type_oxidation_number
  Ca2+  2.0
  Au3+  3.0
  O2-  -2.0
loop_
 _atom_site_type_symbol
 _atom_site_label
 _atom_site_symmetry_multiplicity
 _atom_site_fract_x
 _atom_site_fract_y
 _atom_site_fract_z
 _atom_site_occupancy
  Ca2+  Ca0  1  0.00000000  0.50000000  0.25000000  1
  Ca2+  Ca1  1  0.00000000  0.00000000  0.00000000  1
  Ca2+  Ca2  1  0.50000000  0.00000000  0.75000000  1
  Ca2+  Ca3  1  0.50000000  0.50000000  0.50000000  1
  Au3+  Au4  1  0.50000000  0.25000000  0.12500000  1
  Au3+  Au5  1  0.75000000  0.00000000  0.37500000  1
  Au3+  Au6  1  0.50000000  0.75000000  0.12500000  1
  Au3+  Au7  1  0.25000000  0.00000000  0.37500000  1
  Au3+  Au8  1  0.00000000  0.75000000  0.62500000  1
  Au3+  Au9  1  0.25000000  0.50000000  0.87500000  1
  Au3+  Au10  1  0.00000000  0.25000000  0.62500000  1
  Au3+  Au11  1  0.75000000  0.50000000  0.87500000  1
  O2-  O12  1  0.20472600  0.84108500  0.20098000  1
  O2-  O13  1  0.84108500  0.29527400  0.45098000  1
  O2-  O14  1  0.15891500  0.70472600  0.45098000  1
  O2-  O15  1  0.79527400  0.15891500  0.20098000  1
  O2-  O16  1  0.79527400  0.65891500  0.04902000  1
  O2-  O17  1  0.65891500  0.70472600  0.29902000  1
  O2-  O18  1  0.20472600  0.34108500  0.04902000  1
  O2-  O19  1  0.34108500  0.29527400  0.29902000  1
  O2-  O20  1  0.70472600  0.34108500  0.70098000  1
  O2-  O21  1  0.34108500  0.79527400  0.95098000  1
  O2-  O22  1  0.65891500  0.20472600  0.95098000  1
  O2-  O23  1  0.29527400  0.65891500  0.70098000  1
  O2-  O24  1  0.29527400  0.15891500  0.54902000  1
  O2-  O25  1  0.15891500  0.20472600  0.79902000  1
  O2-  O26  1  0.70472600  0.84108500  0.54902000  1
  O2-  O27  1  0.84108500  0.79527400  0.79902000  1
