# generated using pymatgen
data_Ca2BiAsO6
_symmetry_space_group_name_H-M   'P 1'
_cell_length_a   9.02601000
_cell_length_b   12.13227400
_cell_length_c   5.60745600
_cell_angle_alpha   90.00000000
_cell_angle_beta   90.00000000
_cell_angle_gamma   90.00000000
_symmetry_Int_Tables_number   1
_chemical_formula_structural   Ca2BiAsO6
_chemical_formula_sum   'Ca8 Bi4 As4 O24'
_cell_volume   614.05022503
_cell_formula_units_Z   4
loop_
 _symmetry_equiv_pos_site_id
 _symmetry_equiv_pos_as_xyz
  1  'x, y, z'
loop_
 _atom_type_symbol
 _atom_type_oxidation_number
  Ca2+  2.0
  Bi3+  3.0
  As5+  5.0
  O2-  -2.0
loop_
 _atom_site_type_symbol
 _atom_site_label
 _atom_site_symmetry_multiplicity
 _atom_site_fract_x
 _atom_site_fract_y
 _atom_site_fract_z
 _atom_site_occupancy
  Ca2+  Ca0  1  0.19912900  0.10689900  0.23803800  1
  Ca2+  Ca1  1  0.80087100  0.10689900  0.23803800  1
  Ca2+  Ca2  1  0.19912900  0.89310100  0.73803800  1
  Ca2+  Ca3  1  0.80087100  0.89310100  0.73803800  1
  Ca2+  Ca4  1  0.69912900  0.60689900  0.23803800  1
  Ca2+  Ca5  1  0.30087100  0.60689900  0.23803800  1
  Ca2+  Ca6  1  0.69912900  0.39310100  0.73803800  1
  Ca2+  Ca7  1  0.30087100  0.39310100  0.73803800  1
  Bi3+  Bi8  1  0.50000000  0.08918800  0.74810700  1
  Bi3+  Bi9  1  0.50000000  0.91081200  0.24810700  1
  Bi3+  Bi10  1  0.00000000  0.58918800  0.74810700  1
  Bi3+  Bi11  1  0.00000000  0.41081200  0.24810700  1
  As5+  As12  1  0.50000000  0.31774100  0.19534800  1
  As5+  As13  1  0.50000000  0.68225900  0.69534800  1
  As5+  As14  1  0.00000000  0.81774100  0.19534800  1
  As5+  As15  1  0.00000000  0.18225900  0.69534800  1
  O2-  O16  1  0.34683000  0.00283300  0.48820400  1
  O2-  O17  1  0.34337050  0.25457950  0.08200800  1
  O2-  O18  1  0.34337050  0.74542050  0.58200800  1
  O2-  O19  1  0.65317000  0.00283300  0.48820400  1
  O2-  O20  1  0.50000000  0.68183300  0.00278800  1
  O2-  O21  1  0.65317000  0.99716700  0.98820400  1
  O2-  O22  1  0.50000000  0.31816700  0.50278800  1
  O2-  O23  1  0.34683000  0.99716700  0.98820400  1
  O2-  O24  1  0.50000000  0.55298300  0.56325900  1
  O2-  O25  1  0.65662950  0.74542050  0.58200800  1
  O2-  O26  1  0.50000000  0.44701700  0.06325900  1
  O2-  O27  1  0.65662950  0.25457950  0.08200800  1
  O2-  O28  1  0.84683000  0.50283300  0.48820400  1
  O2-  O29  1  0.84337050  0.75457950  0.08200800  1
  O2-  O30  1  0.84337050  0.24542050  0.58200800  1
  O2-  O31  1  0.15317000  0.50283300  0.48820400  1
  O2-  O32  1  0.00000000  0.18183300  0.00278800  1
  O2-  O33  1  0.15317000  0.49716700  0.98820400  1
  O2-  O34  1  0.00000000  0.81816700  0.50278800  1
  O2-  O35  1  0.84683000  0.49716700  0.98820400  1
  O2-  O36  1  0.00000000  0.05298300  0.56325900  1
  O2-  O37  1  0.15662950  0.24542050  0.58200800  1
  O2-  O38  1  0.00000000  0.94701700  0.06325900  1
  O2-  O39  1  0.15662950  0.75457950  0.08200800  1
