# generated using pymatgen
data_Ca2MgWO6
_symmetry_space_group_name_H-M   'P 1'
_cell_length_a   5.47486900
_cell_length_b   5.63732400
_cell_length_c   9.53096899
_cell_angle_alpha   90.00000000
_cell_angle_beta   124.88109443
_cell_angle_gamma   90.00000000
_symmetry_Int_Tables_number   1
_chemical_formula_structural   Ca2MgWO6
_chemical_formula_sum   'Ca4 Mg2 W2 O12'
_cell_volume   241.31148976
_cell_formula_units_Z   2
loop_
 _symmetry_equiv_pos_site_id
 _symmetry_equiv_pos_as_xyz
  1  'x, y, z'
loop_
 _atom_type_symbol
 _atom_type_oxidation_number
  Ca2+  2.0
  Mg2+  2.0
  W6+  6.0
  O2-  -2.0
loop_
 _atom_site_type_symbol
 _atom_site_label
 _atom_site_symmetry_multiplicity
 _atom_site_fract_x
 _atom_site_fract_y
 _atom_site_fract_z
 _atom_site_occupancy
  Ca2+  Ca0  1  0.23548800  0.05082500  0.24751200  1
  Ca2+  Ca1  1  0.76451200  0.55082500  0.25248800  1
  Ca2+  Ca2  1  0.23548800  0.44917500  0.74751200  1
  Ca2+  Ca3  1  0.76451200  0.94917500  0.75248800  1
  Mg2+  Mg4  1  0.00000000  0.50000000  0.00000000  1
  Mg2+  Mg5  1  0.00000000  0.00000000  0.50000000  1
  W6+  W6  1  0.50000000  0.00000000  0.00000000  1
  W6+  W7  1  0.50000000  0.50000000  0.50000000  1
  O2-  O8  1  0.16730900  0.30469500  0.45500000  1
  O2-  O9  1  0.83269100  0.80469500  0.04500000  1
  O2-  O10  1  0.83269100  0.69530500  0.54500000  1
  O2-  O11  1  0.16730900  0.19530500  0.95500000  1
  O2-  O12  1  0.74327900  0.21534700  0.55153000  1
  O2-  O13  1  0.25672100  0.71534700  0.94847000  1
  O2-  O14  1  0.25672100  0.78465300  0.44847000  1
  O2-  O15  1  0.74327900  0.28465300  0.05153000  1
  O2-  O16  1  0.35145800  0.46941700  0.25928100  1
  O2-  O17  1  0.64854200  0.96941700  0.24071900  1
  O2-  O18  1  0.64854200  0.53058300  0.74071900  1
  O2-  O19  1  0.35145800  0.03058300  0.75928100  1
