# generated using pymatgen
data_Ca2PbO4
_symmetry_space_group_name_H-M   'P 1'
_cell_length_a   3.42657000
_cell_length_b   5.90108900
_cell_length_c   9.90764400
_cell_angle_alpha   90.00000000
_cell_angle_beta   90.00000000
_cell_angle_gamma   90.00000000
_symmetry_Int_Tables_number   1
_chemical_formula_structural   Ca2PbO4
_chemical_formula_sum   'Ca4 Pb2 O8'
_cell_volume   200.33746135
_cell_formula_units_Z   2
loop_
 _symmetry_equiv_pos_site_id
 _symmetry_equiv_pos_as_xyz
  1  'x, y, z'
loop_
 _atom_type_symbol
 _atom_type_oxidation_number
  Ca2+  2.0
  Pb4+  4.0
  O2-  -2.0
loop_
 _atom_site_type_symbol
 _atom_site_label
 _atom_site_symmetry_multiplicity
 _atom_site_fract_x
 _atom_site_fract_y
 _atom_site_fract_z
 _atom_site_occupancy
  Ca2+  Ca0  1  0.50000000  0.42729100  0.81794700  1
  Ca2+  Ca1  1  0.50000000  0.57270900  0.18205300  1
  Ca2+  Ca2  1  0.50000000  0.92729100  0.68205300  1
  Ca2+  Ca3  1  0.50000000  0.07270900  0.31794700  1
  Pb4+  Pb4  1  0.00000000  0.50000000  0.50000000  1
  Pb4+  Pb5  1  0.00000000  0.00000000  0.00000000  1
  O2-  O6  1  0.00000000  0.14063300  0.79908300  1
  O2-  O7  1  0.00000000  0.85936700  0.20091700  1
  O2-  O8  1  0.00000000  0.64063300  0.70091700  1
  O2-  O9  1  0.00000000  0.35936700  0.29908300  1
  O2-  O10  1  0.50000000  0.25962600  0.54903900  1
  O2-  O11  1  0.50000000  0.74037400  0.45096100  1
  O2-  O12  1  0.50000000  0.24037400  0.04903900  1
  O2-  O13  1  0.50000000  0.75962600  0.95096100  1
