# generated using pymatgen
data_Ca2Pt3O8
_symmetry_space_group_name_H-M   'P 1'
_cell_length_a   6.31592215
_cell_length_b   6.31592215
_cell_length_c   15.47332541
_cell_angle_alpha   90.00000000
_cell_angle_beta   90.00000000
_cell_angle_gamma   120.00000000
_symmetry_Int_Tables_number   1
_chemical_formula_structural   Ca2Pt3O8
_chemical_formula_sum   'Ca6 Pt9 O24'
_cell_volume   534.54937687
_cell_formula_units_Z   3
loop_
 _symmetry_equiv_pos_site_id
 _symmetry_equiv_pos_as_xyz
  1  'x, y, z'
loop_
 _atom_type_symbol
 _atom_type_oxidation_number
  Ca2+  2.0
  Pt4+  4.0
  O2-  -2.0
loop_
 _atom_site_type_symbol
 _atom_site_label
 _atom_site_symmetry_multiplicity
 _atom_site_fract_x
 _atom_site_fract_y
 _atom_site_fract_z
 _atom_site_occupancy
  Ca2+  Ca0  1  0.00000000  0.00000000  0.14464100  1
  Ca2+  Ca1  1  0.66666667  0.33333333  0.18869233  1
  Ca2+  Ca2  1  0.66666667  0.33333333  0.47797433  1
  Ca2+  Ca3  1  0.33333333  0.66666667  0.52202567  1
  Ca2+  Ca4  1  0.33333333  0.66666667  0.81130767  1
  Ca2+  Ca5  1  0.00000000  0.00000000  0.85535900  1
  Pt4+  Pt6  1  0.50000000  0.50000000  0.00000000  1
  Pt4+  Pt7  1  0.00000000  0.50000000  0.00000000  1
  Pt4+  Pt8  1  0.50000000  0.00000000  0.00000000  1
  Pt4+  Pt9  1  0.16666667  0.83333333  0.33333333  1
  Pt4+  Pt10  1  0.66666667  0.83333333  0.33333333  1
  Pt4+  Pt11  1  0.16666667  0.33333333  0.33333333  1
  Pt4+  Pt12  1  0.83333333  0.16666667  0.66666667  1
  Pt4+  Pt13  1  0.33333333  0.16666667  0.66666667  1
  Pt4+  Pt14  1  0.83333333  0.66666667  0.66666667  1
  O2-  O15  1  0.33333333  0.66666667  0.06204867  1
  O2-  O16  1  0.33333333  0.66666667  0.27128467  1
  O2-  O17  1  0.81524700  0.63049400  0.07158600  1
  O2-  O18  1  0.81524700  0.18475300  0.07158600  1
  O2-  O19  1  0.36950600  0.18475300  0.07158600  1
  O2-  O20  1  0.85141967  0.14858033  0.26174733  1
  O2-  O21  1  0.85141967  0.70283933  0.26174733  1
  O2-  O22  1  0.29716067  0.14858033  0.26174733  1
  O2-  O23  1  0.00000000  0.00000000  0.39538200  1
  O2-  O24  1  0.00000000  0.00000000  0.60461800  1
  O2-  O25  1  0.48191367  0.96382733  0.40491933  1
  O2-  O26  1  0.48191367  0.51808633  0.40491933  1
  O2-  O27  1  0.03617267  0.51808633  0.40491933  1
  O2-  O28  1  0.51808633  0.48191367  0.59508067  1
  O2-  O29  1  0.51808633  0.03617267  0.59508067  1
  O2-  O30  1  0.96382733  0.48191367  0.59508067  1
  O2-  O31  1  0.66666667  0.33333333  0.72871533  1
  O2-  O32  1  0.66666667  0.33333333  0.93795133  1
  O2-  O33  1  0.14858033  0.29716067  0.73825267  1
  O2-  O34  1  0.14858033  0.85141967  0.73825267  1
  O2-  O35  1  0.70283933  0.85141967  0.73825267  1
  O2-  O36  1  0.18475300  0.81524700  0.92841400  1
  O2-  O37  1  0.18475300  0.36950600  0.92841400  1
  O2-  O38  1  0.63049400  0.81524700  0.92841400  1
