# generated using pymatgen
data_Ca2ScTaO6
_symmetry_space_group_name_H-M   'P 1'
_cell_length_a   5.53344500
_cell_length_b   5.71291700
_cell_length_c   9.66871497
_cell_angle_alpha   90.00000000
_cell_angle_beta   124.87084095
_cell_angle_gamma   90.00000000
_symmetry_Int_Tables_number   1
_chemical_formula_structural   Ca2ScTaO6
_chemical_formula_sum   'Ca4 Sc2 Ta2 O12'
_cell_volume   250.76715647
_cell_formula_units_Z   2
loop_
 _symmetry_equiv_pos_site_id
 _symmetry_equiv_pos_as_xyz
  1  'x, y, z'
loop_
 _atom_type_symbol
 _atom_type_oxidation_number
  Ca2+  2.0
  Sc3+  3.0
  Ta5+  5.0
  O2-  -2.0
loop_
 _atom_site_type_symbol
 _atom_site_label
 _atom_site_symmetry_multiplicity
 _atom_site_fract_x
 _atom_site_fract_y
 _atom_site_fract_z
 _atom_site_occupancy
  Ca2+  Ca0  1  0.26280500  0.44834700  0.24957700  1
  Ca2+  Ca1  1  0.73719500  0.55165300  0.75042300  1
  Ca2+  Ca2  1  0.73719500  0.94834700  0.25042300  1
  Ca2+  Ca3  1  0.26280500  0.05165300  0.74957700  1
  Sc3+  Sc4  1  0.00000000  0.00000000  0.00000000  1
  Sc3+  Sc5  1  0.00000000  0.50000000  0.50000000  1
  Ta5+  Ta6  1  0.50000000  0.00000000  0.50000000  1
  Ta5+  Ta7  1  0.50000000  0.50000000  0.00000000  1
  O2-  O8  1  0.15922500  0.03291800  0.25719700  1
  O2-  O9  1  0.84077500  0.96708200  0.74280300  1
  O2-  O10  1  0.84077500  0.53291800  0.24280300  1
  O2-  O11  1  0.15922500  0.46708200  0.75719700  1
  O2-  O12  1  0.25874700  0.69676200  0.05025500  1
  O2-  O13  1  0.74125300  0.30323800  0.94974500  1
  O2-  O14  1  0.74125300  0.19676200  0.44974500  1
  O2-  O15  1  0.25874700  0.80323800  0.55025500  1
  O2-  O16  1  0.35973900  0.21039900  0.05346500  1
  O2-  O17  1  0.64026100  0.78960100  0.94653500  1
  O2-  O18  1  0.64026100  0.71039900  0.44653500  1
  O2-  O19  1  0.35973900  0.28960100  0.55346500  1
