# generated using pymatgen
data_Ca2Sn3O8
_symmetry_space_group_name_H-M   'P 1'
_cell_length_a   11.49694000
_cell_length_b   6.42234400
_cell_length_c   5.40742941
_cell_angle_alpha   90.00000000
_cell_angle_beta   110.76221752
_cell_angle_gamma   90.00000000
_symmetry_Int_Tables_number   1
_chemical_formula_structural   Ca2Sn3O8
_chemical_formula_sum   'Ca4 Sn6 O16'
_cell_volume   373.34126937
_cell_formula_units_Z   2
loop_
 _symmetry_equiv_pos_site_id
 _symmetry_equiv_pos_as_xyz
  1  'x, y, z'
loop_
 _atom_type_symbol
 _atom_type_oxidation_number
  Ca2+  2.0
  Sn4+  4.0
  O2-  -2.0
loop_
 _atom_site_type_symbol
 _atom_site_label
 _atom_site_symmetry_multiplicity
 _atom_site_fract_x
 _atom_site_fract_y
 _atom_site_fract_z
 _atom_site_occupancy
  Ca2+  Ca0  1  0.27998000  0.00000000  0.34242600  1
  Ca2+  Ca1  1  0.22002000  0.50000000  0.65757400  1
  Ca2+  Ca2  1  0.77998000  0.50000000  0.34242600  1
  Ca2+  Ca3  1  0.72002000  0.00000000  0.65757400  1
  Sn4+  Sn4  1  0.00000000  0.00000000  0.50000000  1
  Sn4+  Sn5  1  0.00000000  0.26257200  0.00000000  1
  Sn4+  Sn6  1  0.00000000  0.73742800  0.00000000  1
  Sn4+  Sn7  1  0.50000000  0.50000000  0.50000000  1
  Sn4+  Sn8  1  0.50000000  0.76257200  0.00000000  1
  Sn4+  Sn9  1  0.50000000  0.23742800  0.00000000  1
  O2-  O10  1  0.11088500  0.50000000  0.94752200  1
  O2-  O11  1  0.38911500  0.00000000  0.05247800  1
  O2-  O12  1  0.10203400  0.00000000  0.91510600  1
  O2-  O13  1  0.39796600  0.50000000  0.08489400  1
  O2-  O14  1  0.39058250  0.27805450  0.60101500  1
  O2-  O15  1  0.39058250  0.72194550  0.60101500  1
  O2-  O16  1  0.10941750  0.77805450  0.39898500  1
  O2-  O17  1  0.10941750  0.22194550  0.39898500  1
  O2-  O18  1  0.61088500  0.00000000  0.94752200  1
  O2-  O19  1  0.88911500  0.50000000  0.05247800  1
  O2-  O20  1  0.60203400  0.50000000  0.91510600  1
  O2-  O21  1  0.89796600  0.00000000  0.08489400  1
  O2-  O22  1  0.89058250  0.77805450  0.60101500  1
  O2-  O23  1  0.89058250  0.22194550  0.60101500  1
  O2-  O24  1  0.60941750  0.27805450  0.39898500  1
  O2-  O25  1  0.60941750  0.72194550  0.39898500  1
