# generated using pymatgen
data_Ca2ScSbO6
_symmetry_space_group_name_H-M   'P 1'
_cell_length_a   5.55062900
_cell_length_b   5.69660100
_cell_length_c   9.68396017
_cell_angle_alpha   90.00000000
_cell_angle_beta   124.94403984
_cell_angle_gamma   90.00000000
_symmetry_Int_Tables_number   1
_chemical_formula_structural   Ca2ScSbO6
_chemical_formula_sum   'Ca4 Sc2 Sb2 O12'
_cell_volume   250.99912946
_cell_formula_units_Z   2
loop_
 _symmetry_equiv_pos_site_id
 _symmetry_equiv_pos_as_xyz
  1  'x, y, z'
loop_
 _atom_type_symbol
 _atom_type_oxidation_number
  Ca2+  2.0
  Sc3+  3.0
  Sb5+  5.0
  O2-  -2.0
loop_
 _atom_site_type_symbol
 _atom_site_label
 _atom_site_symmetry_multiplicity
 _atom_site_fract_x
 _atom_site_fract_y
 _atom_site_fract_z
 _atom_site_occupancy
  Ca2+  Ca0  1  0.23679900  0.45181400  0.75033400  1
  Ca2+  Ca1  1  0.23679900  0.04818600  0.25033400  1
  Ca2+  Ca2  1  0.76320100  0.54818600  0.24966600  1
  Ca2+  Ca3  1  0.76320100  0.95181400  0.74966600  1
  Sc3+  Sc4  1  0.50000000  0.50000000  0.50000000  1
  Sc3+  Sc5  1  0.50000000  0.00000000  0.00000000  1
  Sb5+  Sb6  1  0.00000000  0.00000000  0.50000000  1
  Sb5+  Sb7  1  0.00000000  0.50000000  0.00000000  1
  O2-  O8  1  0.76086100  0.20014700  0.55010900  1
  O2-  O9  1  0.76086100  0.29985300  0.05010900  1
  O2-  O10  1  0.23913900  0.79985300  0.44989100  1
  O2-  O11  1  0.23913900  0.70014700  0.94989100  1
  O2-  O12  1  0.14289900  0.21241700  0.94657700  1
  O2-  O13  1  0.14289900  0.28758300  0.44657700  1
  O2-  O14  1  0.85710100  0.78758300  0.05342300  1
  O2-  O15  1  0.85710100  0.71241700  0.55342300  1
  O2-  O16  1  0.34056200  0.03373600  0.74271100  1
  O2-  O17  1  0.34056200  0.46626400  0.24271100  1
  O2-  O18  1  0.65943800  0.96626400  0.25728900  1
  O2-  O19  1  0.65943800  0.53373600  0.75728900  1
