# generated using pymatgen
data_Ca2Sb2O7
_symmetry_space_group_name_H-M   'P 1'
_cell_length_a   7.40481400
_cell_length_b   7.56054800
_cell_length_c   10.34738200
_cell_angle_alpha   90.00000000
_cell_angle_beta   90.00000000
_cell_angle_gamma   90.00000000
_symmetry_Int_Tables_number   1
_chemical_formula_structural   Ca2Sb2O7
_chemical_formula_sum   'Ca8 Sb8 O28'
_cell_volume   579.29250757
_cell_formula_units_Z   4
loop_
 _symmetry_equiv_pos_site_id
 _symmetry_equiv_pos_as_xyz
  1  'x, y, z'
loop_
 _atom_type_symbol
 _atom_type_oxidation_number
  Ca2+  2.0
  Sb5+  5.0
  O2-  -2.0
loop_
 _atom_site_type_symbol
 _atom_site_label
 _atom_site_symmetry_multiplicity
 _atom_site_fract_x
 _atom_site_fract_y
 _atom_site_fract_z
 _atom_site_occupancy
  Ca2+  Ca0  1  0.25000000  0.75000000  0.75000000  1
  Ca2+  Ca1  1  0.25000000  0.25000000  0.25000000  1
  Ca2+  Ca2  1  0.00000000  0.00000000  0.00000000  1
  Ca2+  Ca3  1  0.00000000  0.00000000  0.50000000  1
  Ca2+  Ca4  1  0.75000000  0.25000000  0.25000000  1
  Ca2+  Ca5  1  0.75000000  0.75000000  0.75000000  1
  Ca2+  Ca6  1  0.50000000  0.50000000  0.50000000  1
  Ca2+  Ca7  1  0.50000000  0.50000000  0.00000000  1
  Sb5+  Sb8  1  0.75000000  0.75000000  0.25000000  1
  Sb5+  Sb9  1  0.25000000  0.75000000  0.25000000  1
  Sb5+  Sb10  1  0.00000000  0.50000000  0.00000000  1
  Sb5+  Sb11  1  0.50000000  0.00000000  0.00000000  1
  Sb5+  Sb12  1  0.25000000  0.25000000  0.75000000  1
  Sb5+  Sb13  1  0.75000000  0.25000000  0.75000000  1
  Sb5+  Sb14  1  0.50000000  0.00000000  0.50000000  1
  Sb5+  Sb15  1  0.00000000  0.50000000  0.50000000  1
  O2-  O16  1  0.21012400  0.43806000  0.88181800  1
  O2-  O17  1  0.21012400  0.56194000  0.11818200  1
  O2-  O18  1  0.28987600  0.93806000  0.11818200  1
  O2-  O19  1  0.78987600  0.56194000  0.38181800  1
  O2-  O20  1  0.28987600  0.06194000  0.61818200  1
  O2-  O21  1  0.28987600  0.93806000  0.38181800  1
  O2-  O22  1  0.21012400  0.56194000  0.38181800  1
  O2-  O23  1  0.71012400  0.93806000  0.11818200  1
  O2-  O24  1  0.50000000  0.65137700  0.25000000  1
  O2-  O25  1  0.00000000  0.84862300  0.25000000  1
  O2-  O26  1  0.50000000  0.22915400  0.40583700  1
  O2-  O27  1  0.00000000  0.27084600  0.09416300  1
  O2-  O28  1  0.00000000  0.72915400  0.59416300  1
  O2-  O29  1  0.50000000  0.77084600  0.90583700  1
  O2-  O30  1  0.71012400  0.93806000  0.38181800  1
  O2-  O31  1  0.71012400  0.06194000  0.61818200  1
  O2-  O32  1  0.78987600  0.43806000  0.61818200  1
  O2-  O33  1  0.28987600  0.06194000  0.88181800  1
  O2-  O34  1  0.78987600  0.56194000  0.11818200  1
  O2-  O35  1  0.78987600  0.43806000  0.88181800  1
  O2-  O36  1  0.71012400  0.06194000  0.88181800  1
  O2-  O37  1  0.21012400  0.43806000  0.61818200  1
  O2-  O38  1  0.00000000  0.15137700  0.75000000  1
  O2-  O39  1  0.50000000  0.34862300  0.75000000  1
  O2-  O40  1  0.00000000  0.72915400  0.90583700  1
  O2-  O41  1  0.50000000  0.77084600  0.59416300  1
  O2-  O42  1  0.50000000  0.22915400  0.09416300  1
  O2-  O43  1  0.00000000  0.27084600  0.40583700  1
