# generated using pymatgen
data_Ca3(BO3)2
_symmetry_space_group_name_H-M   'P 1'
_cell_length_a   8.69300562
_cell_length_b   8.69300562
_cell_length_c   12.04407509
_cell_angle_alpha   90.00000000
_cell_angle_beta   90.00000000
_cell_angle_gamma   120.00000000
_symmetry_Int_Tables_number   1
_chemical_formula_structural   Ca3(BO3)2
_chemical_formula_sum   'Ca18 B12 O36'
_cell_volume   788.21375046
_cell_formula_units_Z   6
loop_
 _symmetry_equiv_pos_site_id
 _symmetry_equiv_pos_as_xyz
  1  'x, y, z'
loop_
 _atom_type_symbol
 _atom_type_oxidation_number
  Ca2+  2.0
  B3+  3.0
  O2-  -2.0
loop_
 _atom_site_type_symbol
 _atom_site_label
 _atom_site_symmetry_multiplicity
 _atom_site_fract_x
 _atom_site_fract_y
 _atom_site_fract_z
 _atom_site_occupancy
  Ca2+  Ca0  1  0.35650200  0.00000000  0.25000000  1
  Ca2+  Ca1  1  0.00000000  0.35650200  0.25000000  1
  Ca2+  Ca2  1  0.64349800  0.64349800  0.25000000  1
  Ca2+  Ca3  1  0.31016467  0.33333333  0.08333333  1
  Ca2+  Ca4  1  0.66666667  0.97683133  0.08333333  1
  Ca2+  Ca5  1  0.02316867  0.68983533  0.08333333  1
  Ca2+  Ca6  1  0.02316867  0.33333333  0.58333333  1
  Ca2+  Ca7  1  0.66666667  0.68983533  0.58333333  1
  Ca2+  Ca8  1  0.31016467  0.97683133  0.58333333  1
  Ca2+  Ca9  1  0.97683133  0.66666667  0.41666667  1
  Ca2+  Ca10  1  0.33333333  0.31016467  0.41666667  1
  Ca2+  Ca11  1  0.68983533  0.02316867  0.41666667  1
  Ca2+  Ca12  1  0.68983533  0.66666667  0.91666667  1
  Ca2+  Ca13  1  0.33333333  0.02316867  0.91666667  1
  Ca2+  Ca14  1  0.97683133  0.31016467  0.91666667  1
  Ca2+  Ca15  1  0.64349800  0.00000000  0.75000000  1
  Ca2+  Ca16  1  0.00000000  0.64349800  0.75000000  1
  Ca2+  Ca17  1  0.35650200  0.35650200  0.75000000  1
  B3+  B18  1  0.33333333  0.66666667  0.54902067  1
  B3+  B19  1  0.33333333  0.66666667  0.78431267  1
  B3+  B20  1  0.33333333  0.66666667  0.04902067  1
  B3+  B21  1  0.33333333  0.66666667  0.28431267  1
  B3+  B22  1  0.00000000  0.00000000  0.88235400  1
  B3+  B23  1  0.00000000  0.00000000  0.11764600  1
  B3+  B24  1  0.00000000  0.00000000  0.38235400  1
  B3+  B25  1  1.00000000  0.00000000  0.61764600  1
  B3+  B26  1  0.66666667  0.33333333  0.21568733  1
  B3+  B27  1  0.66666667  0.33333333  0.45097933  1
  B3+  B28  1  0.66666667  0.33333333  0.71568733  1
  B3+  B29  1  0.66666667  0.33333333  0.95097933  1
  O2-  O30  1  0.34528633  0.83244467  0.05113267  1
  O2-  O31  1  0.16755533  0.51284167  0.05113267  1
  O2-  O32  1  0.48715833  0.65471367  0.05113267  1
  O2-  O33  1  0.16577800  0.01195300  0.11553400  1
  O2-  O34  1  0.84617500  0.83422200  0.11553400  1
  O2-  O35  1  0.98804700  0.15382500  0.11553400  1
  O2-  O36  1  0.49911133  0.82049167  0.28220067  1
  O2-  O37  1  0.32138033  0.50088867  0.28220067  1
  O2-  O38  1  0.17950833  0.67861967  0.28220067  1
  O2-  O39  1  0.82049167  0.49911133  0.21779933  1
  O2-  O40  1  0.67861967  0.17950833  0.21779933  1
  O2-  O41  1  0.50088867  0.32138033  0.21779933  1
  O2-  O42  1  0.01195300  0.16577800  0.38446600  1
  O2-  O43  1  0.83422200  0.84617500  0.38446600  1
  O2-  O44  1  0.15382500  0.98804700  0.38446600  1
  O2-  O45  1  0.83244467  0.34528633  0.44886733  1
  O2-  O46  1  0.51284167  0.16755533  0.44886733  1
  O2-  O47  1  0.65471367  0.48715833  0.44886733  1
  O2-  O48  1  0.16577800  0.15382500  0.61553400  1
  O2-  O49  1  0.98804700  0.83422200  0.61553400  1
  O2-  O50  1  0.84617500  0.01195300  0.61553400  1
  O2-  O51  1  0.48715833  0.83244467  0.55113267  1
  O2-  O52  1  0.34528633  0.51284167  0.55113267  1
  O2-  O53  1  0.16755533  0.65471367  0.55113267  1
  O2-  O54  1  0.67861967  0.49911133  0.71779933  1
  O2-  O55  1  0.50088867  0.17950833  0.71779933  1
  O2-  O56  1  0.82049167  0.32138033  0.71779933  1
  O2-  O57  1  0.49911133  0.67861967  0.78220067  1
  O2-  O58  1  0.17950833  0.50088867  0.78220067  1
  O2-  O59  1  0.32138033  0.82049167  0.78220067  1
  O2-  O60  1  0.83244467  0.48715833  0.94886733  1
  O2-  O61  1  0.65471367  0.16755533  0.94886733  1
  O2-  O62  1  0.51284167  0.34528633  0.94886733  1
  O2-  O63  1  0.15382500  0.16577800  0.88446600  1
  O2-  O64  1  0.01195300  0.84617500  0.88446600  1
  O2-  O65  1  0.83422200  0.98804700  0.88446600  1
