# generated using pymatgen
data_Ca3TaGa3(SiO7)2
_symmetry_space_group_name_H-M   'P 1'
_cell_length_a   8.21188163
_cell_length_b   8.21188163
_cell_length_c   5.02681200
_cell_angle_alpha   90.00000000
_cell_angle_beta   90.00000000
_cell_angle_gamma   120.00000000
_symmetry_Int_Tables_number   1
_chemical_formula_structural   Ca3TaGa3(SiO7)2
_chemical_formula_sum   'Ca3 Ta1 Ga3 Si2 O14'
_cell_volume   293.56794740
_cell_formula_units_Z   1
loop_
 _symmetry_equiv_pos_site_id
 _symmetry_equiv_pos_as_xyz
  1  'x, y, z'
loop_
 _atom_type_symbol
 _atom_type_oxidation_number
  Ca2+  2.0
  Ta5+  5.0
  Ga3+  3.0
  Si4+  4.0
  O2-  -2.0
loop_
 _atom_site_type_symbol
 _atom_site_label
 _atom_site_symmetry_multiplicity
 _atom_site_fract_x
 _atom_site_fract_y
 _atom_site_fract_z
 _atom_site_occupancy
  Ca2+  Ca0  1  0.00000000  0.42219500  0.00000000  1
  Ca2+  Ca1  1  0.57780500  0.57780500  0.00000000  1
  Ca2+  Ca2  1  0.42219500  0.00000000  0.00000000  1
  Ta5+  Ta3  1  0.00000000  0.00000000  0.00000000  1
  Ga3+  Ga4  1  0.25681500  0.25681500  0.50000000  1
  Ga3+  Ga5  1  0.74318500  0.00000000  0.50000000  1
  Ga3+  Ga6  1  0.00000000  0.74318500  0.50000000  1
  Si4+  Si7  1  0.33333333  0.66666667  0.55037400  1
  Si4+  Si8  1  0.66666667  0.33333333  0.44962600  1
  O2-  O9  1  0.08628500  0.22532300  0.23484400  1
  O2-  O10  1  0.77467700  0.86096200  0.23484400  1
  O2-  O11  1  0.13903800  0.91371500  0.23484400  1
  O2-  O12  1  0.86096200  0.77467700  0.76515600  1
  O2-  O13  1  0.91371500  0.13903800  0.76515600  1
  O2-  O14  1  0.22532300  0.08628500  0.76515600  1
  O2-  O15  1  0.32381900  0.47836100  0.69046800  1
  O2-  O16  1  0.52163900  0.84545800  0.69046800  1
  O2-  O17  1  0.15454200  0.67618100  0.69046800  1
  O2-  O18  1  0.33333333  0.66666667  0.22994300  1
  O2-  O19  1  0.66666667  0.33333333  0.77005700  1
  O2-  O20  1  0.47836100  0.32381900  0.30953200  1
  O2-  O21  1  0.67618100  0.15454200  0.30953200  1
  O2-  O22  1  0.84545800  0.52163900  0.30953200  1
