# generated using pymatgen
data_Ca3WO6
_symmetry_space_group_name_H-M   'P 1'
_cell_length_a   9.47323612
_cell_length_b   9.47323612
_cell_length_c   11.14132750
_cell_angle_alpha   90.00000000
_cell_angle_beta   90.00000000
_cell_angle_gamma   120.00000000
_symmetry_Int_Tables_number   1
_chemical_formula_structural   Ca3WO6
_chemical_formula_sum   'Ca18 W6 O36'
_cell_volume   865.89313574
_cell_formula_units_Z   6
loop_
 _symmetry_equiv_pos_site_id
 _symmetry_equiv_pos_as_xyz
  1  'x, y, z'
loop_
 _atom_type_symbol
 _atom_type_oxidation_number
  Ca2+  2.0
  W6+  6.0
  O2-  -2.0
loop_
 _atom_site_type_symbol
 _atom_site_label
 _atom_site_symmetry_multiplicity
 _atom_site_fract_x
 _atom_site_fract_y
 _atom_site_fract_z
 _atom_site_occupancy
  Ca2+  Ca0  1  0.73110067  0.77231033  0.70671933  1
  Ca2+  Ca1  1  0.22768967  0.95879033  0.70671933  1
  Ca2+  Ca2  1  0.95879033  0.73110067  0.29328067  1
  Ca2+  Ca3  1  0.04120967  0.26889933  0.70671933  1
  Ca2+  Ca4  1  0.77231033  0.04120967  0.29328067  1
  Ca2+  Ca5  1  0.26889933  0.22768967  0.29328067  1
  Ca2+  Ca6  1  0.39776733  0.10564367  0.04005267  1
  Ca2+  Ca7  1  0.89435633  0.29212367  0.04005267  1
  Ca2+  Ca8  1  0.62545700  0.06443400  0.62661400  1
  Ca2+  Ca9  1  0.70787633  0.60223267  0.04005267  1
  Ca2+  Ca10  1  0.43897700  0.37454300  0.62661400  1
  Ca2+  Ca11  1  0.93556600  0.56102300  0.62661400  1
  Ca2+  Ca12  1  0.06443400  0.43897700  0.37338600  1
  Ca2+  Ca13  1  0.56102300  0.62545700  0.37338600  1
  Ca2+  Ca14  1  0.29212367  0.39776733  0.95994733  1
  Ca2+  Ca15  1  0.37454300  0.93556600  0.37338600  1
  Ca2+  Ca16  1  0.10564367  0.70787633  0.95994733  1
  Ca2+  Ca17  1  0.60223267  0.89435633  0.95994733  1
  W6+  W18  1  0.00000000  0.00000000  0.00000000  1
  W6+  W19  1  0.00000000  0.00000000  0.50000000  1
  W6+  W20  1  0.66666667  0.33333333  0.33333333  1
  W6+  W21  1  0.66666667  0.33333333  0.83333333  1
  W6+  W22  1  0.33333333  0.66666667  0.66666667  1
  W6+  W23  1  0.33333333  0.66666667  0.16666667  1
  O2-  O24  1  0.85367500  0.49192000  0.42956500  1
  O2-  O25  1  0.49192000  0.63824500  0.57043500  1
  O2-  O26  1  0.97371833  0.82187267  0.60467667  1
  O2-  O27  1  0.36175500  0.85367500  0.57043500  1
  O2-  O28  1  0.84815433  0.02628167  0.60467667  1
  O2-  O29  1  0.82187267  0.84815433  0.39532333  1
  O2-  O30  1  0.17812733  0.15184567  0.60467667  1
  O2-  O31  1  0.15184567  0.97371833  0.39532333  1
  O2-  O32  1  0.63824500  0.14632500  0.42956500  1
  O2-  O33  1  0.02628167  0.17812733  0.39532333  1
  O2-  O34  1  0.50808000  0.36175500  0.42956500  1
  O2-  O35  1  0.14632500  0.50808000  0.57043500  1
  O2-  O36  1  0.52034167  0.82525333  0.76289833  1
  O2-  O37  1  0.15858667  0.97157833  0.90376833  1
  O2-  O38  1  0.64038500  0.15520600  0.93801000  1
  O2-  O39  1  0.02842167  0.18700833  0.90376833  1
  O2-  O40  1  0.51482100  0.35961500  0.93801000  1
  O2-  O41  1  0.48853933  0.18148767  0.72865667  1
  O2-  O42  1  0.84479400  0.48517900  0.93801000  1
  O2-  O43  1  0.81851233  0.30705167  0.72865667  1
  O2-  O44  1  0.30491167  0.47965833  0.76289833  1
  O2-  O45  1  0.69294833  0.51146067  0.72865667  1
  O2-  O46  1  0.17474667  0.69508833  0.76289833  1
  O2-  O47  1  0.81299167  0.84141333  0.90376833  1
  O2-  O48  1  0.18700833  0.15858667  0.09623167  1
  O2-  O49  1  0.82525333  0.30491167  0.23710167  1
  O2-  O50  1  0.30705167  0.48853933  0.27134333  1
  O2-  O51  1  0.69508833  0.52034167  0.23710167  1
  O2-  O52  1  0.18148767  0.69294833  0.27134333  1
  O2-  O53  1  0.15520600  0.51482100  0.06199000  1
  O2-  O54  1  0.51146067  0.81851233  0.27134333  1
  O2-  O55  1  0.48517900  0.64038500  0.06199000  1
  O2-  O56  1  0.97157833  0.81299167  0.09623167  1
  O2-  O57  1  0.35961500  0.84479400  0.06199000  1
  O2-  O58  1  0.84141333  0.02842167  0.09623167  1
  O2-  O59  1  0.47965833  0.17474667  0.23710167  1
