# generated using pymatgen
data_Ca4As2O
_symmetry_space_group_name_H-M   'P 1'
_cell_length_a   4.56655200
_cell_length_b   4.56655200
_cell_length_c   15.49743200
_cell_angle_alpha   90.00000000
_cell_angle_beta   90.00000000
_cell_angle_gamma   90.00000000
_symmetry_Int_Tables_number   1
_chemical_formula_structural   Ca4As2O
_chemical_formula_sum   'Ca8 As4 O2'
_cell_volume   323.17410459
_cell_formula_units_Z   2
loop_
 _symmetry_equiv_pos_site_id
 _symmetry_equiv_pos_as_xyz
  1  'x, y, z'
loop_
 _atom_type_symbol
 _atom_type_oxidation_number
  Ca2+  2.0
  As3-  -3.0
  O2-  -2.0
loop_
 _atom_site_type_symbol
 _atom_site_label
 _atom_site_symmetry_multiplicity
 _atom_site_fract_x
 _atom_site_fract_y
 _atom_site_fract_z
 _atom_site_occupancy
  Ca2+  Ca0  1  0.50000000  0.50000000  0.17169200  1
  Ca2+  Ca1  1  0.00000000  0.00000000  0.32830800  1
  Ca2+  Ca2  1  0.50000000  0.00000000  0.00000000  1
  Ca2+  Ca3  1  0.00000000  0.50000000  0.00000000  1
  Ca2+  Ca4  1  0.00000000  0.00000000  0.67169200  1
  Ca2+  Ca5  1  0.50000000  0.50000000  0.82830800  1
  Ca2+  Ca6  1  0.00000000  0.50000000  0.50000000  1
  Ca2+  Ca7  1  0.50000000  0.00000000  0.50000000  1
  As3-  As8  1  0.50000000  0.50000000  0.36282600  1
  As3-  As9  1  0.00000000  0.00000000  0.13717400  1
  As3-  As10  1  0.00000000  0.00000000  0.86282600  1
  As3-  As11  1  0.50000000  0.50000000  0.63717400  1
  O2-  O12  1  0.50000000  0.50000000  0.00000000  1
  O2-  O13  1  0.00000000  0.00000000  0.50000000  1
