# generated using pymatgen
data_Ca4PdO6
_symmetry_space_group_name_H-M   'P 1'
_cell_length_a   9.40059527
_cell_length_b   9.40059527
_cell_length_c   11.29691398
_cell_angle_alpha   90.00000000
_cell_angle_beta   90.00000000
_cell_angle_gamma   120.00000000
_symmetry_Int_Tables_number   1
_chemical_formula_structural   Ca4PdO6
_chemical_formula_sum   'Ca24 Pd6 O36'
_cell_volume   864.57199517
_cell_formula_units_Z   6
loop_
 _symmetry_equiv_pos_site_id
 _symmetry_equiv_pos_as_xyz
  1  'x, y, z'
loop_
 _atom_type_symbol
 _atom_type_oxidation_number
  Ca2+  2.0
  Pd4+  4.0
  O2-  -2.0
loop_
 _atom_site_type_symbol
 _atom_site_label
 _atom_site_symmetry_multiplicity
 _atom_site_fract_x
 _atom_site_fract_y
 _atom_site_fract_z
 _atom_site_occupancy
  Ca2+  Ca0  1  0.00000000  0.00000000  0.25000000  1
  Ca2+  Ca1  1  0.00000000  0.00000000  0.75000000  1
  Ca2+  Ca2  1  0.69875633  0.66666667  0.41666667  1
  Ca2+  Ca3  1  0.33333333  0.03208967  0.41666667  1
  Ca2+  Ca4  1  0.96791033  0.30124367  0.41666667  1
  Ca2+  Ca5  1  0.30124367  0.33333333  0.58333333  1
  Ca2+  Ca6  1  0.66666667  0.96791033  0.58333333  1
  Ca2+  Ca7  1  0.03208967  0.69875633  0.58333333  1
  Ca2+  Ca8  1  0.66666667  0.33333333  0.58333333  1
  Ca2+  Ca9  1  0.66666667  0.33333333  0.08333333  1
  Ca2+  Ca10  1  0.36542300  0.00000000  0.75000000  1
  Ca2+  Ca11  1  0.00000000  0.36542300  0.75000000  1
  Ca2+  Ca12  1  0.63457700  0.63457700  0.75000000  1
  Ca2+  Ca13  1  0.96791033  0.66666667  0.91666667  1
  Ca2+  Ca14  1  0.33333333  0.30124367  0.91666667  1
  Ca2+  Ca15  1  0.69875633  0.03208967  0.91666667  1
  Ca2+  Ca16  1  0.33333333  0.66666667  0.91666667  1
  Ca2+  Ca17  1  0.33333333  0.66666667  0.41666667  1
  Ca2+  Ca18  1  0.03208967  0.33333333  0.08333333  1
  Ca2+  Ca19  1  0.66666667  0.69875633  0.08333333  1
  Ca2+  Ca20  1  0.30124367  0.96791033  0.08333333  1
  Ca2+  Ca21  1  0.63457700  0.00000000  0.25000000  1
  Ca2+  Ca22  1  0.00000000  0.63457700  0.25000000  1
  Ca2+  Ca23  1  0.36542300  0.36542300  0.25000000  1
  Pd4+  Pd24  1  0.00000000  0.00000000  0.00000000  1
  Pd4+  Pd25  1  0.00000000  0.00000000  0.50000000  1
  Pd4+  Pd26  1  0.66666667  0.33333333  0.33333333  1
  Pd4+  Pd27  1  0.66666667  0.33333333  0.83333333  1
  Pd4+  Pd28  1  0.33333333  0.66666667  0.66666667  1
  Pd4+  Pd29  1  0.33333333  0.66666667  0.16666667  1
  O2-  O30  1  0.19310200  0.03517300  0.60474000  1
  O2-  O31  1  0.96482700  0.15792900  0.60474000  1
  O2-  O32  1  0.84207100  0.80689800  0.60474000  1
  O2-  O33  1  0.49126233  0.63149367  0.56192667  1
  O2-  O34  1  0.36850633  0.85976867  0.56192667  1
  O2-  O35  1  0.14023133  0.50873767  0.56192667  1
  O2-  O36  1  0.80689800  0.96482700  0.39526000  1
  O2-  O37  1  0.03517300  0.84207100  0.39526000  1
  O2-  O38  1  0.15792900  0.19310200  0.39526000  1
  O2-  O39  1  0.50873767  0.36850633  0.43807333  1
  O2-  O40  1  0.85976867  0.49126233  0.43807333  1
  O2-  O41  1  0.63149367  0.14023133  0.43807333  1
  O2-  O42  1  0.85976867  0.36850633  0.93807333  1
  O2-  O43  1  0.63149367  0.49126233  0.93807333  1
  O2-  O44  1  0.50873767  0.14023133  0.93807333  1
  O2-  O45  1  0.15792900  0.96482700  0.89526000  1
  O2-  O46  1  0.03517300  0.19310200  0.89526000  1
  O2-  O47  1  0.80689800  0.84207100  0.89526000  1
  O2-  O48  1  0.47356467  0.29816033  0.72859333  1
  O2-  O49  1  0.70183967  0.17540433  0.72859333  1
  O2-  O50  1  0.82459567  0.52643533  0.72859333  1
  O2-  O51  1  0.17540433  0.70183967  0.77140667  1
  O2-  O52  1  0.52643533  0.82459567  0.77140667  1
  O2-  O53  1  0.29816033  0.47356467  0.77140667  1
  O2-  O54  1  0.52643533  0.70183967  0.27140667  1
  O2-  O55  1  0.29816033  0.82459567  0.27140667  1
  O2-  O56  1  0.17540433  0.47356467  0.27140667  1
  O2-  O57  1  0.82459567  0.29816033  0.22859333  1
  O2-  O58  1  0.70183967  0.52643533  0.22859333  1
  O2-  O59  1  0.47356467  0.17540433  0.22859333  1
  O2-  O60  1  0.14023133  0.63149367  0.06192667  1
  O2-  O61  1  0.36850633  0.50873767  0.06192667  1
  O2-  O62  1  0.49126233  0.85976867  0.06192667  1
  O2-  O63  1  0.84207100  0.03517300  0.10474000  1
  O2-  O64  1  0.19310200  0.15792900  0.10474000  1
  O2-  O65  1  0.96482700  0.80689800  0.10474000  1
