# generated using pymatgen
data_CaAgAsO4
_symmetry_space_group_name_H-M   'P 1'
_cell_length_a   5.94660400
_cell_length_b   9.52710000
_cell_length_c   7.15422300
_cell_angle_alpha   90.00000000
_cell_angle_beta   90.00000000
_cell_angle_gamma   90.00000000
_symmetry_Int_Tables_number   1
_chemical_formula_structural   CaAgAsO4
_chemical_formula_sum   'Ca4 Ag4 As4 O16'
_cell_volume   405.31456981
_cell_formula_units_Z   4
loop_
 _symmetry_equiv_pos_site_id
 _symmetry_equiv_pos_as_xyz
  1  'x, y, z'
loop_
 _atom_type_symbol
 _atom_type_oxidation_number
  Ca2+  2.0
  Ag+  1.0
  As5+  5.0
  O2-  -2.0
loop_
 _atom_site_type_symbol
 _atom_site_label
 _atom_site_symmetry_multiplicity
 _atom_site_fract_x
 _atom_site_fract_y
 _atom_site_fract_z
 _atom_site_occupancy
  Ca2+  Ca0  1  0.00000000  0.00000000  0.50000000  1
  Ca2+  Ca1  1  0.00000000  0.00000000  0.00000000  1
  Ca2+  Ca2  1  0.50000000  0.50000000  0.50000000  1
  Ca2+  Ca3  1  0.50000000  0.50000000  0.00000000  1
  Ag+  Ag4  1  0.50000000  0.18818500  0.75000000  1
  Ag+  Ag5  1  0.50000000  0.81181500  0.25000000  1
  Ag+  Ag6  1  0.00000000  0.68818500  0.75000000  1
  Ag+  Ag7  1  0.00000000  0.31181500  0.25000000  1
  As5+  As8  1  0.50000000  0.84846000  0.75000000  1
  As5+  As9  1  0.50000000  0.15154000  0.25000000  1
  As5+  As10  1  0.00000000  0.34846000  0.75000000  1
  As5+  As11  1  0.00000000  0.65154000  0.25000000  1
  O2-  O12  1  0.50000000  0.74167400  0.55768500  1
  O2-  O13  1  0.50000000  0.25832600  0.44231500  1
  O2-  O14  1  0.50000000  0.25832600  0.05768500  1
  O2-  O15  1  0.50000000  0.74167400  0.94231500  1
  O2-  O16  1  0.73385350  0.95880550  0.75000000  1
  O2-  O17  1  0.26614650  0.04119450  0.25000000  1
  O2-  O18  1  0.26614650  0.95880550  0.75000000  1
  O2-  O19  1  0.73385350  0.04119450  0.25000000  1
  O2-  O20  1  0.00000000  0.24167400  0.55768500  1
  O2-  O21  1  0.00000000  0.75832600  0.44231500  1
  O2-  O22  1  0.00000000  0.75832600  0.05768500  1
  O2-  O23  1  0.00000000  0.24167400  0.94231500  1
  O2-  O24  1  0.23385350  0.45880550  0.75000000  1
  O2-  O25  1  0.76614650  0.54119450  0.25000000  1
  O2-  O26  1  0.76614650  0.45880550  0.75000000  1
  O2-  O27  1  0.23385350  0.54119450  0.25000000  1
