# generated using pymatgen
data_CaAlBO4
_symmetry_space_group_name_H-M   'P 1'
_cell_length_a   8.35997600
_cell_length_b   15.39656000
_cell_length_c   5.80488300
_cell_angle_alpha   90.00000000
_cell_angle_beta   90.00000000
_cell_angle_gamma   90.00000000
_symmetry_Int_Tables_number   1
_chemical_formula_structural   CaAlBO4
_chemical_formula_sum   'Ca8 Al8 B8 O32'
_cell_volume   747.17477280
_cell_formula_units_Z   8
loop_
 _symmetry_equiv_pos_site_id
 _symmetry_equiv_pos_as_xyz
  1  'x, y, z'
loop_
 _atom_type_symbol
 _atom_type_oxidation_number
  Ca2+  2.0
  Al3+  3.0
  B3+  3.0
  O2-  -2.0
loop_
 _atom_site_type_symbol
 _atom_site_label
 _atom_site_symmetry_multiplicity
 _atom_site_fract_x
 _atom_site_fract_y
 _atom_site_fract_z
 _atom_site_occupancy
  Ca2+  Ca0  1  0.14257400  0.09320600  0.99679400  1
  Ca2+  Ca1  1  0.64257400  0.40679400  0.49679400  1
  Ca2+  Ca2  1  0.35742600  0.40679400  0.99679400  1
  Ca2+  Ca3  1  0.85742600  0.09320600  0.49679400  1
  Ca2+  Ca4  1  0.64257400  0.59320600  0.99679400  1
  Ca2+  Ca5  1  0.14257400  0.90679400  0.49679400  1
  Ca2+  Ca6  1  0.85742600  0.90679400  0.99679400  1
  Ca2+  Ca7  1  0.35742600  0.59320600  0.49679400  1
  Al3+  Al8  1  0.00921400  0.29450200  0.26322800  1
  Al3+  Al9  1  0.49078600  0.20549800  0.26322800  1
  Al3+  Al10  1  0.50921400  0.20549800  0.76322800  1
  Al3+  Al11  1  0.99078600  0.29450200  0.76322800  1
  Al3+  Al12  1  0.50921400  0.79450200  0.26322800  1
  Al3+  Al13  1  0.99078600  0.70549800  0.26322800  1
  Al3+  Al14  1  0.00921400  0.70549800  0.76322800  1
  Al3+  Al15  1  0.49078600  0.79450200  0.76322800  1
  B3+  B16  1  0.23639550  0.39006150  0.52199000  1
  B3+  B17  1  0.76360450  0.39006150  0.02199000  1
  B3+  B18  1  0.73639550  0.10993850  0.02199000  1
  B3+  B19  1  0.26360450  0.10993850  0.52199000  1
  B3+  B20  1  0.73639550  0.89006150  0.52199000  1
  B3+  B21  1  0.26360450  0.89006150  0.02199000  1
  B3+  B22  1  0.23639550  0.60993850  0.02199000  1
  B3+  B23  1  0.76360450  0.60993850  0.52199000  1
  O2-  O24  1  0.65708500  0.13395500  0.22313000  1
  O2-  O25  1  0.46847100  0.26644900  0.01095300  1
  O2-  O26  1  0.68175500  0.13728900  0.80690000  1
  O2-  O27  1  0.81824500  0.36271100  0.80690000  1
  O2-  O28  1  0.18175500  0.36271100  0.30690000  1
  O2-  O29  1  0.31824500  0.13728900  0.30690000  1
  O2-  O30  1  0.53152900  0.26644900  0.51095300  1
  O2-  O31  1  0.13140150  0.05794050  0.54330500  1
  O2-  O32  1  0.15708500  0.36604500  0.72313000  1
  O2-  O33  1  0.03152900  0.23355100  0.01095300  1
  O2-  O34  1  0.36859850  0.44205950  0.54330500  1
  O2-  O35  1  0.96847100  0.23355100  0.51095300  1
  O2-  O36  1  0.63140150  0.44205950  0.04330500  1
  O2-  O37  1  0.84291500  0.36604500  0.22313000  1
  O2-  O38  1  0.34291500  0.13395500  0.72313000  1
  O2-  O39  1  0.86859850  0.05794050  0.04330500  1
  O2-  O40  1  0.15708500  0.63395500  0.22313000  1
  O2-  O41  1  0.96847100  0.76644900  0.01095300  1
  O2-  O42  1  0.18175500  0.63728900  0.80690000  1
  O2-  O43  1  0.31824500  0.86271100  0.80690000  1
  O2-  O44  1  0.68175500  0.86271100  0.30690000  1
  O2-  O45  1  0.81824500  0.63728900  0.30690000  1
  O2-  O46  1  0.03152900  0.76644900  0.51095300  1
  O2-  O47  1  0.63140150  0.55794050  0.54330500  1
  O2-  O48  1  0.65708500  0.86604500  0.72313000  1
  O2-  O49  1  0.53152900  0.73355100  0.01095300  1
  O2-  O50  1  0.86859850  0.94205950  0.54330500  1
  O2-  O51  1  0.46847100  0.73355100  0.51095300  1
  O2-  O52  1  0.13140150  0.94205950  0.04330500  1
  O2-  O53  1  0.34291500  0.86604500  0.22313000  1
  O2-  O54  1  0.84291500  0.63395500  0.72313000  1
  O2-  O55  1  0.36859850  0.55794050  0.04330500  1
