# generated using pymatgen
data_CaIn2O4
_symmetry_space_group_name_H-M   'P 1'
_cell_length_a   9.38247600
_cell_length_b   9.38247600
_cell_length_c   9.38247600
_cell_angle_alpha   90.00000000
_cell_angle_beta   90.00000000
_cell_angle_gamma   90.00000000
_symmetry_Int_Tables_number   1
_chemical_formula_structural   CaIn2O4
_chemical_formula_sum   'Ca8 In16 O32'
_cell_volume   825.94739265
_cell_formula_units_Z   8
loop_
 _symmetry_equiv_pos_site_id
 _symmetry_equiv_pos_as_xyz
  1  'x, y, z'
loop_
 _atom_type_symbol
 _atom_type_oxidation_number
  Ca2+  2.0
  In3+  3.0
  O2-  -2.0
loop_
 _atom_site_type_symbol
 _atom_site_label
 _atom_site_symmetry_multiplicity
 _atom_site_fract_x
 _atom_site_fract_y
 _atom_site_fract_z
 _atom_site_occupancy
  Ca2+  Ca0  1  0.25000000  0.75000000  0.25000000  1
  Ca2+  Ca1  1  0.00000000  0.00000000  0.50000000  1
  Ca2+  Ca2  1  0.25000000  0.25000000  0.75000000  1
  Ca2+  Ca3  1  0.00000000  0.50000000  0.00000000  1
  Ca2+  Ca4  1  0.75000000  0.75000000  0.75000000  1
  Ca2+  Ca5  1  0.50000000  0.00000000  0.00000000  1
  Ca2+  Ca6  1  0.75000000  0.25000000  0.25000000  1
  Ca2+  Ca7  1  0.50000000  0.50000000  0.50000000  1
  In3+  In8  1  0.12500000  0.12500000  0.12500000  1
  In3+  In9  1  0.37500000  0.12500000  0.37500000  1
  In3+  In10  1  0.87500000  0.87500000  0.12500000  1
  In3+  In11  1  0.62500000  0.87500000  0.37500000  1
  In3+  In12  1  0.12500000  0.62500000  0.62500000  1
  In3+  In13  1  0.37500000  0.62500000  0.87500000  1
  In3+  In14  1  0.87500000  0.37500000  0.62500000  1
  In3+  In15  1  0.62500000  0.37500000  0.87500000  1
  In3+  In16  1  0.62500000  0.12500000  0.62500000  1
  In3+  In17  1  0.87500000  0.12500000  0.87500000  1
  In3+  In18  1  0.37500000  0.87500000  0.62500000  1
  In3+  In19  1  0.12500000  0.87500000  0.87500000  1
  In3+  In20  1  0.62500000  0.62500000  0.12500000  1
  In3+  In21  1  0.87500000  0.62500000  0.37500000  1
  In3+  In22  1  0.37500000  0.37500000  0.12500000  1
  In3+  In23  1  0.12500000  0.37500000  0.37500000  1
  O2-  O24  1  0.36152867  0.13847133  0.13847133  1
  O2-  O25  1  0.13847133  0.13847133  0.36152867  1
  O2-  O26  1  0.36152867  0.36152867  0.36152867  1
  O2-  O27  1  0.88847133  0.11152867  0.11152867  1
  O2-  O28  1  0.11152867  0.88847133  0.11152867  1
  O2-  O29  1  0.61152867  0.11152867  0.38847133  1
  O2-  O30  1  0.13847133  0.36152867  0.13847133  1
  O2-  O31  1  0.38847133  0.88847133  0.38847133  1
  O2-  O32  1  0.36152867  0.63847133  0.63847133  1
  O2-  O33  1  0.13847133  0.63847133  0.86152867  1
  O2-  O34  1  0.36152867  0.86152867  0.86152867  1
  O2-  O35  1  0.88847133  0.61152867  0.61152867  1
  O2-  O36  1  0.11152867  0.38847133  0.61152867  1
  O2-  O37  1  0.61152867  0.61152867  0.88847133  1
  O2-  O38  1  0.13847133  0.86152867  0.63847133  1
  O2-  O39  1  0.38847133  0.38847133  0.88847133  1
  O2-  O40  1  0.86152867  0.13847133  0.63847133  1
  O2-  O41  1  0.63847133  0.13847133  0.86152867  1
  O2-  O42  1  0.86152867  0.36152867  0.86152867  1
  O2-  O43  1  0.38847133  0.11152867  0.61152867  1
  O2-  O44  1  0.61152867  0.88847133  0.61152867  1
  O2-  O45  1  0.11152867  0.11152867  0.88847133  1
  O2-  O46  1  0.63847133  0.36152867  0.63847133  1
  O2-  O47  1  0.88847133  0.88847133  0.88847133  1
  O2-  O48  1  0.86152867  0.63847133  0.13847133  1
  O2-  O49  1  0.63847133  0.63847133  0.36152867  1
  O2-  O50  1  0.86152867  0.86152867  0.36152867  1
  O2-  O51  1  0.38847133  0.61152867  0.11152867  1
  O2-  O52  1  0.61152867  0.38847133  0.11152867  1
  O2-  O53  1  0.11152867  0.61152867  0.38847133  1
  O2-  O54  1  0.63847133  0.86152867  0.13847133  1
  O2-  O55  1  0.88847133  0.38847133  0.38847133  1
