# generated using pymatgen
data_CaSc2O4
_symmetry_space_group_name_H-M   'P 1'
_cell_length_a   3.16290900
_cell_length_b   9.53554000
_cell_length_c   11.18674300
_cell_angle_alpha   90.00000000
_cell_angle_beta   90.00000000
_cell_angle_gamma   90.00000000
_symmetry_Int_Tables_number   1
_chemical_formula_structural   CaSc2O4
_chemical_formula_sum   'Ca4 Sc8 O16'
_cell_volume   337.39267548
_cell_formula_units_Z   4
loop_
 _symmetry_equiv_pos_site_id
 _symmetry_equiv_pos_as_xyz
  1  'x, y, z'
loop_
 _atom_type_symbol
 _atom_type_oxidation_number
  Ca2+  2.0
  Sc3+  3.0
  O2-  -2.0
loop_
 _atom_site_type_symbol
 _atom_site_label
 _atom_site_symmetry_multiplicity
 _atom_site_fract_x
 _atom_site_fract_y
 _atom_site_fract_z
 _atom_site_occupancy
  Ca2+  Ca0  1  0.75000000  0.75588900  0.34781000  1
  Ca2+  Ca1  1  0.25000000  0.24411100  0.65219000  1
  Ca2+  Ca2  1  0.75000000  0.25588900  0.15219000  1
  Ca2+  Ca3  1  0.25000000  0.74411100  0.84781000  1
  Sc3+  Sc4  1  0.25000000  0.08023200  0.39286700  1
  Sc3+  Sc5  1  0.75000000  0.91976800  0.60713300  1
  Sc3+  Sc6  1  0.25000000  0.58023200  0.10713300  1
  Sc3+  Sc7  1  0.75000000  0.41976800  0.89286700  1
  Sc3+  Sc8  1  0.75000000  0.43015500  0.38757500  1
  Sc3+  Sc9  1  0.25000000  0.56984500  0.61242500  1
  Sc3+  Sc10  1  0.75000000  0.93015500  0.11242500  1
  Sc3+  Sc11  1  0.25000000  0.06984500  0.88757500  1
  O2-  O12  1  0.25000000  0.08015400  0.07536000  1
  O2-  O13  1  0.75000000  0.91984600  0.92464000  1
  O2-  O14  1  0.25000000  0.58015400  0.42464000  1
  O2-  O15  1  0.75000000  0.41984600  0.57536000  1
  O2-  O16  1  0.25000000  0.97718700  0.71599600  1
  O2-  O17  1  0.75000000  0.02281300  0.28400400  1
  O2-  O18  1  0.25000000  0.47718700  0.78400400  1
  O2-  O19  1  0.75000000  0.52281300  0.21599600  1
  O2-  O20  1  0.25000000  0.37686700  0.02439400  1
  O2-  O21  1  0.75000000  0.62313300  0.97560600  1
  O2-  O22  1  0.25000000  0.87686700  0.47560600  1
  O2-  O23  1  0.75000000  0.12313300  0.52439400  1
  O2-  O24  1  0.75000000  0.20723000  0.82848700  1
  O2-  O25  1  0.25000000  0.79277000  0.17151300  1
  O2-  O26  1  0.75000000  0.70723000  0.67151300  1
  O2-  O27  1  0.25000000  0.29277000  0.32848700  1
