# generated using pymatgen
data_CaSnO3
_symmetry_space_group_name_H-M   'P 1'
_cell_length_a   5.57074640
_cell_length_b   5.57074640
_cell_length_c   15.48562730
_cell_angle_alpha   90.00000000
_cell_angle_beta   90.00000000
_cell_angle_gamma   120.00000000
_symmetry_Int_Tables_number   1
_chemical_formula_structural   CaSnO3
_chemical_formula_sum   'Ca6 Sn6 O18'
_cell_volume   416.18479661
_cell_formula_units_Z   6
loop_
 _symmetry_equiv_pos_site_id
 _symmetry_equiv_pos_as_xyz
  1  'x, y, z'
loop_
 _atom_type_symbol
 _atom_type_oxidation_number
  Ca2+  2.0
  Sn4+  4.0
  O2-  -2.0
loop_
 _atom_site_type_symbol
 _atom_site_label
 _atom_site_symmetry_multiplicity
 _atom_site_fract_x
 _atom_site_fract_y
 _atom_site_fract_z
 _atom_site_occupancy
  Ca2+  Ca0  1  0.33333333  0.66666667  0.30393367  1
  Ca2+  Ca1  1  0.33333333  0.66666667  0.02939967  1
  Ca2+  Ca2  1  0.00000000  0.00000000  0.63726700  1
  Ca2+  Ca3  1  0.00000000  0.00000000  0.36273300  1
  Ca2+  Ca4  1  0.66666667  0.33333333  0.97060033  1
  Ca2+  Ca5  1  0.66666667  0.33333333  0.69606633  1
  Sn4+  Sn6  1  0.66666667  0.33333333  0.17907533  1
  Sn4+  Sn7  1  0.00000000  0.00000000  0.15425800  1
  Sn4+  Sn8  1  0.33333333  0.66666667  0.51240867  1
  Sn4+  Sn9  1  0.66666667  0.33333333  0.48759133  1
  Sn4+  Sn10  1  0.00000000  0.00000000  0.84574200  1
  Sn4+  Sn11  1  0.33333333  0.66666667  0.82092467  1
  O2-  O12  1  0.72121067  0.68667933  0.24297833  1
  O2-  O13  1  0.96546867  0.27878933  0.24297833  1
  O2-  O14  1  0.31332067  0.03453133  0.24297833  1
  O2-  O15  1  0.94545600  0.64665400  0.09035500  1
  O2-  O16  1  0.35334600  0.29880200  0.09035500  1
  O2-  O17  1  0.70119800  0.05454400  0.09035500  1
  O2-  O18  1  0.38787733  0.02001267  0.57631167  1
  O2-  O19  1  0.63213533  0.61212267  0.57631167  1
  O2-  O20  1  0.97998733  0.36786467  0.57631167  1
  O2-  O21  1  0.61212267  0.97998733  0.42368833  1
  O2-  O22  1  0.02001267  0.63213533  0.42368833  1
  O2-  O23  1  0.36786467  0.38787733  0.42368833  1
  O2-  O24  1  0.05454400  0.35334600  0.90964500  1
  O2-  O25  1  0.29880200  0.94545600  0.90964500  1
  O2-  O26  1  0.64665400  0.70119800  0.90964500  1
  O2-  O27  1  0.27878933  0.31332067  0.75702167  1
  O2-  O28  1  0.68667933  0.96546867  0.75702167  1
  O2-  O29  1  0.03453133  0.72121067  0.75702167  1
