# generated using pymatgen
data_CaSn(BO3)2
_symmetry_space_group_name_H-M   'P 1'
_cell_length_a   4.91972243
_cell_length_b   4.91972243
_cell_length_c   16.34250030
_cell_angle_alpha   90.00000000
_cell_angle_beta   90.00000000
_cell_angle_gamma   120.00000000
_symmetry_Int_Tables_number   1
_chemical_formula_structural   CaSn(BO3)2
_chemical_formula_sum   'Ca3 Sn3 B6 O18'
_cell_volume   342.55501885
_cell_formula_units_Z   3
loop_
 _symmetry_equiv_pos_site_id
 _symmetry_equiv_pos_as_xyz
  1  'x, y, z'
loop_
 _atom_type_symbol
 _atom_type_oxidation_number
  Ca2+  2.0
  Sn4+  4.0
  B3+  3.0
  O2-  -2.0
loop_
 _atom_site_type_symbol
 _atom_site_label
 _atom_site_symmetry_multiplicity
 _atom_site_fract_x
 _atom_site_fract_y
 _atom_site_fract_z
 _atom_site_occupancy
  Ca2+  Ca0  1  0.00000000  0.00000000  0.00000000  1
  Ca2+  Ca1  1  0.66666667  0.33333333  0.33333333  1
  Ca2+  Ca2  1  0.33333333  0.66666667  0.66666667  1
  Sn4+  Sn3  1  0.33333333  0.66666667  0.16666667  1
  Sn4+  Sn4  1  1.00000000  0.00000000  0.50000000  1
  Sn4+  Sn5  1  0.66666667  0.33333333  0.83333333  1
  B3+  B6  1  0.00000000  0.00000000  0.23930900  1
  B3+  B7  1  0.66666667  0.33333333  0.09402433  1
  B3+  B8  1  0.66666667  0.33333333  0.57264233  1
  B3+  B9  1  0.33333333  0.66666667  0.42735767  1
  B3+  B10  1  0.33333333  0.66666667  0.90597567  1
  B3+  B11  1  0.00000000  0.00000000  0.76069100  1
  O2-  O12  1  0.70534233  0.73321567  0.24200567  1
  O2-  O13  1  0.26678433  0.97212667  0.24200567  1
  O2-  O14  1  0.63879333  0.03867567  0.09132767  1
  O2-  O15  1  0.96132433  0.60011767  0.09132767  1
  O2-  O16  1  0.39988233  0.36120667  0.09132767  1
  O2-  O17  1  0.02787333  0.29465767  0.24200567  1
  O2-  O18  1  0.37200900  0.06654900  0.57533900  1
  O2-  O19  1  0.93345100  0.30546000  0.57533900  1
  O2-  O20  1  0.30546000  0.37200900  0.42466100  1
  O2-  O21  1  0.62799100  0.93345100  0.42466100  1
  O2-  O22  1  0.06654900  0.69454000  0.42466100  1
  O2-  O23  1  0.69454000  0.62799100  0.57533900  1
  O2-  O24  1  0.03867567  0.39988233  0.90867233  1
  O2-  O25  1  0.60011767  0.63879333  0.90867233  1
  O2-  O26  1  0.97212667  0.70534233  0.75799433  1
  O2-  O27  1  0.29465767  0.26678433  0.75799433  1
  O2-  O28  1  0.73321567  0.02787333  0.75799433  1
  O2-  O29  1  0.36120667  0.96132433  0.90867233  1
