# generated using pymatgen
data_CaV2O6
_symmetry_space_group_name_H-M   'P 1'
_cell_length_a   10.47624247
_cell_length_b   3.69811500
_cell_length_c   7.26699124
_cell_angle_alpha   90.00000000
_cell_angle_beta   102.78830650
_cell_angle_gamma   90.00000000
_symmetry_Int_Tables_number   1
_chemical_formula_structural   CaV2O6
_chemical_formula_sum   'Ca2 V4 O12'
_cell_volume   274.55657954
_cell_formula_units_Z   2
loop_
 _symmetry_equiv_pos_site_id
 _symmetry_equiv_pos_as_xyz
  1  'x, y, z'
loop_
 _atom_type_symbol
 _atom_type_oxidation_number
  Ca2+  2.0
  V5+  5.0
  O2-  -2.0
loop_
 _atom_site_type_symbol
 _atom_site_label
 _atom_site_symmetry_multiplicity
 _atom_site_fract_x
 _atom_site_fract_y
 _atom_site_fract_z
 _atom_site_occupancy
  Ca2+  Ca0  1  0.00000000  0.00000000  0.00000000  1
  Ca2+  Ca1  1  0.50000000  0.50000000  0.00000000  1
  V5+  V2  1  0.75871600  0.00000000  0.32759200  1
  V5+  V3  1  0.74128400  0.50000000  0.67240800  1
  V5+  V4  1  0.25871600  0.50000000  0.32759200  1
  V5+  V5  1  0.24128400  0.00000000  0.67240800  1
  O2-  O6  1  0.74435750  0.50000000  0.39668900  1
  O2-  O7  1  0.75564250  0.00000000  0.60331100  1
  O2-  O8  1  0.63210350  0.00000000  0.13267100  1
  O2-  O9  1  0.89945650  0.00000000  0.25869200  1
  O2-  O10  1  0.86789650  0.50000000  0.86732900  1
  O2-  O11  1  0.60054350  0.50000000  0.74130800  1
  O2-  O12  1  0.24435750  0.00000000  0.39668900  1
  O2-  O13  1  0.25564250  0.50000000  0.60331100  1
  O2-  O14  1  0.13210350  0.50000000  0.13267100  1
  O2-  O15  1  0.39945650  0.50000000  0.25869200  1
  O2-  O16  1  0.36789650  0.00000000  0.86732900  1
  O2-  O17  1  0.10054350  0.00000000  0.74130800  1
