# generated using pymatgen
data_CaWO4
_symmetry_space_group_name_H-M   'P 1'
_cell_length_a   5.33453400
_cell_length_b   5.33453400
_cell_length_c   11.50991000
_cell_angle_alpha   90.00000000
_cell_angle_beta   90.00000000
_cell_angle_gamma   90.00000000
_symmetry_Int_Tables_number   1
_chemical_formula_structural   CaWO4
_chemical_formula_sum   'Ca4 W4 O16'
_cell_volume   327.54042084
_cell_formula_units_Z   4
loop_
 _symmetry_equiv_pos_site_id
 _symmetry_equiv_pos_as_xyz
  1  'x, y, z'
loop_
 _atom_type_symbol
 _atom_type_oxidation_number
  Ca2+  2.0
  W6+  6.0
  O2-  -2.0
loop_
 _atom_site_type_symbol
 _atom_site_label
 _atom_site_symmetry_multiplicity
 _atom_site_fract_x
 _atom_site_fract_y
 _atom_site_fract_z
 _atom_site_occupancy
  Ca2+  Ca0  1  0.50000000  0.00000000  0.25000000  1
  Ca2+  Ca1  1  0.50000000  0.50000000  0.00000000  1
  Ca2+  Ca2  1  0.00000000  0.50000000  0.75000000  1
  Ca2+  Ca3  1  0.00000000  0.00000000  0.50000000  1
  W6+  W4  1  0.00000000  0.50000000  0.25000000  1
  W6+  W5  1  0.00000000  0.00000000  0.00000000  1
  W6+  W6  1  0.50000000  0.00000000  0.75000000  1
  W6+  W7  1  0.50000000  0.50000000  0.50000000  1
  O2-  O8  1  0.75681500  0.15371300  0.08643000  1
  O2-  O9  1  0.84628700  0.25681500  0.33643000  1
  O2-  O10  1  0.15371300  0.74318500  0.33643000  1
  O2-  O11  1  0.24318500  0.84628700  0.08643000  1
  O2-  O12  1  0.75681500  0.65371300  0.16357000  1
  O2-  O13  1  0.34628700  0.25681500  0.41357000  1
  O2-  O14  1  0.24318500  0.34628700  0.16357000  1
  O2-  O15  1  0.65371300  0.74318500  0.41357000  1
  O2-  O16  1  0.25681500  0.65371300  0.58643000  1
  O2-  O17  1  0.34628700  0.75681500  0.83643000  1
  O2-  O18  1  0.65371300  0.24318500  0.83643000  1
  O2-  O19  1  0.74318500  0.34628700  0.58643000  1
  O2-  O20  1  0.25681500  0.15371300  0.66357000  1
  O2-  O21  1  0.84628700  0.75681500  0.91357000  1
  O2-  O22  1  0.74318500  0.84628700  0.66357000  1
  O2-  O23  1  0.15371300  0.24318500  0.91357000  1
