# generated using pymatgen
data_CaYBO4
_symmetry_space_group_name_H-M   'P 1'
_cell_length_a   3.64036500
_cell_length_b   9.67118100
_cell_length_c   10.50485600
_cell_angle_alpha   90.00000000
_cell_angle_beta   90.00000000
_cell_angle_gamma   90.00000000
_symmetry_Int_Tables_number   1
_chemical_formula_structural   CaYBO4
_chemical_formula_sum   'Ca4 Y4 B4 O16'
_cell_volume   369.84056601
_cell_formula_units_Z   4
loop_
 _symmetry_equiv_pos_site_id
 _symmetry_equiv_pos_as_xyz
  1  'x, y, z'
loop_
 _atom_type_symbol
 _atom_type_oxidation_number
  Ca2+  2.0
  Y3+  3.0
  B3+  3.0
  O2-  -2.0
loop_
 _atom_site_type_symbol
 _atom_site_label
 _atom_site_symmetry_multiplicity
 _atom_site_fract_x
 _atom_site_fract_y
 _atom_site_fract_z
 _atom_site_occupancy
  Ca2+  Ca0  1  0.25000000  0.66909600  0.08242200  1
  Ca2+  Ca1  1  0.75000000  0.33090400  0.91757800  1
  Ca2+  Ca2  1  0.75000000  0.16909600  0.41757800  1
  Ca2+  Ca3  1  0.25000000  0.83090400  0.58242200  1
  Y3+  Y4  1  0.25000000  0.08874000  0.11142300  1
  Y3+  Y5  1  0.75000000  0.91126000  0.88857700  1
  Y3+  Y6  1  0.75000000  0.58874000  0.38857700  1
  Y3+  Y7  1  0.25000000  0.41126000  0.61142300  1
  B3+  B8  1  0.25000000  0.36828100  0.20119000  1
  B3+  B9  1  0.75000000  0.63171900  0.79881000  1
  B3+  B10  1  0.75000000  0.86828100  0.29881000  1
  B3+  B11  1  0.25000000  0.13171900  0.70119000  1
  O2-  O12  1  0.25000000  0.50034200  0.25171900  1
  O2-  O13  1  0.75000000  0.49965800  0.74828100  1
  O2-  O14  1  0.75000000  0.00034200  0.24828100  1
  O2-  O15  1  0.25000000  0.99965800  0.75171900  1
  O2-  O16  1  0.25000000  0.24947200  0.27705900  1
  O2-  O17  1  0.75000000  0.75052800  0.72294100  1
  O2-  O18  1  0.75000000  0.74947200  0.22294100  1
  O2-  O19  1  0.25000000  0.25052800  0.77705900  1
  O2-  O20  1  0.25000000  0.35070900  0.06816300  1
  O2-  O21  1  0.75000000  0.64929100  0.93183700  1
  O2-  O22  1  0.75000000  0.85070900  0.43183700  1
  O2-  O23  1  0.25000000  0.14929100  0.56816300  1
  O2-  O24  1  0.25000000  0.61481700  0.50633900  1
  O2-  O25  1  0.75000000  0.38518300  0.49366100  1
  O2-  O26  1  0.75000000  0.11481700  0.99366100  1
  O2-  O27  1  0.25000000  0.88518300  0.00633900  1
