# generated using pymatgen
data_Cd2BiAsO6
_symmetry_space_group_name_H-M   'P 1'
_cell_length_a   8.83773000
_cell_length_b   12.19318600
_cell_length_c   5.52824700
_cell_angle_alpha   90.00000000
_cell_angle_beta   90.00000000
_cell_angle_gamma   90.00000000
_symmetry_Int_Tables_number   1
_chemical_formula_structural   Cd2BiAsO6
_chemical_formula_sum   'Cd8 Bi4 As4 O24'
_cell_volume   595.72437053
_cell_formula_units_Z   4
loop_
 _symmetry_equiv_pos_site_id
 _symmetry_equiv_pos_as_xyz
  1  'x, y, z'
loop_
 _atom_type_symbol
 _atom_type_oxidation_number
  Cd2+  2.0
  Bi3+  3.0
  As5+  5.0
  O2-  -2.0
loop_
 _atom_site_type_symbol
 _atom_site_label
 _atom_site_symmetry_multiplicity
 _atom_site_fract_x
 _atom_site_fract_y
 _atom_site_fract_z
 _atom_site_occupancy
  Cd2+  Cd0  1  0.30259450  0.10434550  0.61355900  1
  Cd2+  Cd1  1  0.69740550  0.10434550  0.61355900  1
  Cd2+  Cd2  1  0.69740550  0.89565450  0.11355900  1
  Cd2+  Cd3  1  0.30259450  0.89565450  0.11355900  1
  Cd2+  Cd4  1  0.80259450  0.60434550  0.61355900  1
  Cd2+  Cd5  1  0.19740550  0.60434550  0.61355900  1
  Cd2+  Cd6  1  0.19740550  0.39565450  0.11355900  1
  Cd2+  Cd7  1  0.80259450  0.39565450  0.11355900  1
  Bi3+  Bi8  1  0.50000000  0.40645200  0.60800900  1
  Bi3+  Bi9  1  0.50000000  0.59354800  0.10800900  1
  Bi3+  Bi10  1  0.00000000  0.90645200  0.60800900  1
  Bi3+  Bi11  1  0.00000000  0.09354800  0.10800900  1
  As5+  As12  1  0.50000000  0.81657700  0.65377300  1
  As5+  As13  1  0.50000000  0.18342300  0.15377300  1
  As5+  As14  1  0.00000000  0.31657700  0.65377300  1
  As5+  As15  1  0.00000000  0.68342300  0.15377300  1
  O2-  O16  1  0.15418500  0.00251300  0.36770000  1
  O2-  O17  1  0.33957900  0.75316000  0.76402500  1
  O2-  O18  1  0.15418500  0.99748700  0.86770000  1
  O2-  O19  1  0.84581500  0.00251300  0.36770000  1
  O2-  O20  1  0.84581500  0.99748700  0.86770000  1
  O2-  O21  1  0.50000000  0.05670400  0.29753000  1
  O2-  O22  1  0.50000000  0.81969400  0.33871000  1
  O2-  O23  1  0.66042100  0.24684000  0.26402500  1
  O2-  O24  1  0.33957900  0.24684000  0.26402500  1
  O2-  O25  1  0.50000000  0.94329600  0.79753000  1
  O2-  O26  1  0.50000000  0.18030600  0.83871000  1
  O2-  O27  1  0.66042100  0.75316000  0.76402500  1
  O2-  O28  1  0.65418500  0.50251300  0.36770000  1
  O2-  O29  1  0.83957900  0.25316000  0.76402500  1
  O2-  O30  1  0.65418500  0.49748700  0.86770000  1
  O2-  O31  1  0.34581500  0.50251300  0.36770000  1
  O2-  O32  1  0.34581500  0.49748700  0.86770000  1
  O2-  O33  1  0.00000000  0.55670400  0.29753000  1
  O2-  O34  1  0.00000000  0.31969400  0.33871000  1
  O2-  O35  1  0.16042100  0.74684000  0.26402500  1
  O2-  O36  1  0.83957900  0.74684000  0.26402500  1
  O2-  O37  1  0.00000000  0.44329600  0.79753000  1
  O2-  O38  1  0.00000000  0.68030600  0.83871000  1
  O2-  O39  1  0.16042100  0.25316000  0.76402500  1
