# generated using pymatgen
data_Cd2SiO4
_symmetry_space_group_name_H-M   'P 1'
_cell_length_a   6.10528200
_cell_length_b   10.02106000
_cell_length_c   12.00579000
_cell_angle_alpha   90.00000000
_cell_angle_beta   90.00000000
_cell_angle_gamma   90.00000000
_symmetry_Int_Tables_number   1
_chemical_formula_structural   Cd2SiO4
_chemical_formula_sum   'Cd16 Si8 O32'
_cell_volume   734.53100716
_cell_formula_units_Z   8
loop_
 _symmetry_equiv_pos_site_id
 _symmetry_equiv_pos_as_xyz
  1  'x, y, z'
loop_
 _atom_type_symbol
 _atom_type_oxidation_number
  Cd2+  2.0
  Si4+  4.0
  O2-  -2.0
loop_
 _atom_site_type_symbol
 _atom_site_label
 _atom_site_symmetry_multiplicity
 _atom_site_fract_x
 _atom_site_fract_y
 _atom_site_fract_z
 _atom_site_occupancy
  Cd2+  Cd0  1  0.75000000  0.06416100  0.25000000  1
  Cd2+  Cd1  1  0.75000000  0.43583900  0.25000000  1
  Cd2+  Cd2  1  0.50000000  0.18583900  0.00000000  1
  Cd2+  Cd3  1  0.50000000  0.81416100  0.00000000  1
  Cd2+  Cd4  1  0.75000000  0.56416100  0.75000000  1
  Cd2+  Cd5  1  0.75000000  0.93583900  0.75000000  1
  Cd2+  Cd6  1  0.50000000  0.68583900  0.50000000  1
  Cd2+  Cd7  1  0.50000000  0.31416100  0.50000000  1
  Cd2+  Cd8  1  0.25000000  0.06416100  0.75000000  1
  Cd2+  Cd9  1  0.25000000  0.43583900  0.75000000  1
  Cd2+  Cd10  1  0.00000000  0.18583900  0.50000000  1
  Cd2+  Cd11  1  0.00000000  0.81416100  0.50000000  1
  Cd2+  Cd12  1  0.25000000  0.56416100  0.25000000  1
  Cd2+  Cd13  1  0.25000000  0.93583900  0.25000000  1
  Cd2+  Cd14  1  0.00000000  0.68583900  0.00000000  1
  Cd2+  Cd15  1  0.00000000  0.31416100  0.00000000  1
  Si4+  Si16  1  0.75000000  0.75000000  0.25000000  1
  Si4+  Si17  1  0.00000000  0.00000000  0.00000000  1
  Si4+  Si18  1  0.75000000  0.25000000  0.75000000  1
  Si4+  Si19  1  0.00000000  0.50000000  0.50000000  1
  Si4+  Si20  1  0.25000000  0.75000000  0.75000000  1
  Si4+  Si21  1  0.50000000  0.00000000  0.50000000  1
  Si4+  Si22  1  0.25000000  0.25000000  0.25000000  1
  Si4+  Si23  1  0.50000000  0.50000000  0.00000000  1
  O2-  O24  1  0.90502300  0.85322800  0.32374900  1
  O2-  O25  1  0.40502300  0.14677200  0.17625100  1
  O2-  O26  1  0.59497700  0.85322800  0.17625100  1
  O2-  O27  1  0.09497700  0.14677200  0.32374900  1
  O2-  O28  1  0.84497700  0.39677200  0.42625100  1
  O2-  O29  1  0.84497700  0.10322800  0.07374900  1
  O2-  O30  1  0.65502300  0.10322800  0.42625100  1
  O2-  O31  1  0.65502300  0.39677200  0.07374900  1
  O2-  O32  1  0.90502300  0.35322800  0.82374900  1
  O2-  O33  1  0.40502300  0.64677200  0.67625100  1
  O2-  O34  1  0.59497700  0.35322800  0.67625100  1
  O2-  O35  1  0.09497700  0.64677200  0.82374900  1
  O2-  O36  1  0.84497700  0.89677200  0.92625100  1
  O2-  O37  1  0.84497700  0.60322800  0.57374900  1
  O2-  O38  1  0.65502300  0.60322800  0.92625100  1
  O2-  O39  1  0.65502300  0.89677200  0.57374900  1
  O2-  O40  1  0.40502300  0.85322800  0.82374900  1
  O2-  O41  1  0.90502300  0.14677200  0.67625100  1
  O2-  O42  1  0.09497700  0.85322800  0.67625100  1
  O2-  O43  1  0.59497700  0.14677200  0.82374900  1
  O2-  O44  1  0.34497700  0.39677200  0.92625100  1
  O2-  O45  1  0.34497700  0.10322800  0.57374900  1
  O2-  O46  1  0.15502300  0.10322800  0.92625100  1
  O2-  O47  1  0.15502300  0.39677200  0.57374900  1
  O2-  O48  1  0.40502300  0.35322800  0.32374900  1
  O2-  O49  1  0.90502300  0.64677200  0.17625100  1
  O2-  O50  1  0.09497700  0.35322800  0.17625100  1
  O2-  O51  1  0.59497700  0.64677200  0.32374900  1
  O2-  O52  1  0.34497700  0.89677200  0.42625100  1
  O2-  O53  1  0.34497700  0.60322800  0.07374900  1
  O2-  O54  1  0.15502300  0.60322800  0.42625100  1
  O2-  O55  1  0.15502300  0.89677200  0.07374900  1
