# generated using pymatgen
data_Cs2Pb2O3
_symmetry_space_group_name_H-M   'P 1'
_cell_length_a   9.29123000
_cell_length_b   9.29123000
_cell_length_c   9.29123000
_cell_angle_alpha   90.00000000
_cell_angle_beta   90.00000000
_cell_angle_gamma   90.00000000
_symmetry_Int_Tables_number   1
_chemical_formula_structural   Cs2Pb2O3
_chemical_formula_sum   'Cs8 Pb8 O12'
_cell_volume   802.08359330
_cell_formula_units_Z   4
loop_
 _symmetry_equiv_pos_site_id
 _symmetry_equiv_pos_as_xyz
  1  'x, y, z'
loop_
 _atom_type_symbol
 _atom_type_oxidation_number
  Cs+  1.0
  Pb2+  2.0
  O2-  -2.0
loop_
 _atom_site_type_symbol
 _atom_site_label
 _atom_site_symmetry_multiplicity
 _atom_site_fract_x
 _atom_site_fract_y
 _atom_site_fract_z
 _atom_site_occupancy
  Cs+  Cs0  1  0.24452600  0.24452600  0.24452600  1
  Cs+  Cs1  1  0.24452600  0.75547400  0.25547400  1
  Cs+  Cs2  1  0.25547400  0.24452600  0.75547400  1
  Cs+  Cs3  1  0.75547400  0.25547400  0.24452600  1
  Cs+  Cs4  1  0.74452600  0.74452600  0.74452600  1
  Cs+  Cs5  1  0.74452600  0.25547400  0.75547400  1
  Cs+  Cs6  1  0.75547400  0.74452600  0.25547400  1
  Cs+  Cs7  1  0.25547400  0.75547400  0.74452600  1
  Pb2+  Pb8  1  0.01330300  0.01330300  0.01330300  1
  Pb2+  Pb9  1  0.01330300  0.98669700  0.48669700  1
  Pb2+  Pb10  1  0.48669700  0.01330300  0.98669700  1
  Pb2+  Pb11  1  0.98669700  0.48669700  0.01330300  1
  Pb2+  Pb12  1  0.51330300  0.51330300  0.51330300  1
  Pb2+  Pb13  1  0.51330300  0.48669700  0.98669700  1
  Pb2+  Pb14  1  0.98669700  0.51330300  0.48669700  1
  Pb2+  Pb15  1  0.48669700  0.98669700  0.51330300  1
  O2-  O16  1  0.50000000  0.75000000  0.48727200  1
  O2-  O17  1  0.50000000  0.25000000  0.01272800  1
  O2-  O18  1  0.75000000  0.48727200  0.50000000  1
  O2-  O19  1  0.25000000  0.01272800  0.50000000  1
  O2-  O20  1  0.48727200  0.50000000  0.75000000  1
  O2-  O21  1  0.01272800  0.50000000  0.25000000  1
  O2-  O22  1  0.00000000  0.25000000  0.98727200  1
  O2-  O23  1  0.00000000  0.75000000  0.51272800  1
  O2-  O24  1  0.25000000  0.98727200  0.00000000  1
  O2-  O25  1  0.75000000  0.51272800  0.00000000  1
  O2-  O26  1  0.98727200  0.00000000  0.25000000  1
  O2-  O27  1  0.51272800  0.00000000  0.75000000  1
