# generated using pymatgen
data_Cs2Ti(GeO3)3
_symmetry_space_group_name_H-M   'P 1'
_cell_length_a   7.31773800
_cell_length_b   7.31773800
_cell_length_c   10.54541700
_cell_angle_alpha   90.00000000
_cell_angle_beta   90.00000000
_cell_angle_gamma   120.00000000
_symmetry_Int_Tables_number   1
_chemical_formula_structural   Cs2Ti(GeO3)3
_chemical_formula_sum   'Cs4 Ti2 Ge6 O18'
_cell_volume   489.04418763
_cell_formula_units_Z   2
loop_
 _symmetry_equiv_pos_site_id
 _symmetry_equiv_pos_as_xyz
  1  'x, y, z'
loop_
 _atom_type_symbol
 _atom_type_oxidation_number
  Cs+  1.0
  Ti4+  4.0
  Ge4+  4.0
  O2-  -2.0
loop_
 _atom_site_type_symbol
 _atom_site_label
 _atom_site_symmetry_multiplicity
 _atom_site_fract_x
 _atom_site_fract_y
 _atom_site_fract_z
 _atom_site_occupancy
  Cs+  Cs0  1  0.66666667  0.33333333  0.94129500  1
  Cs+  Cs1  1  0.33333333  0.66666667  0.44129500  1
  Cs+  Cs2  1  0.33333333  0.66666667  0.05870500  1
  Cs+  Cs3  1  0.66666667  0.33333333  0.55870500  1
  Ti4+  Ti4  1  0.00000000  0.00000000  0.00000000  1
  Ti4+  Ti5  1  0.00000000  0.00000000  0.50000000  1
  Ge4+  Ge6  1  0.85760400  0.63040300  0.25000000  1
  Ge4+  Ge7  1  0.77279900  0.14239600  0.25000000  1
  Ge4+  Ge8  1  0.36959700  0.22720100  0.25000000  1
  Ge4+  Ge9  1  0.22720100  0.85760400  0.75000000  1
  Ge4+  Ge10  1  0.63040300  0.77279900  0.75000000  1
  Ge4+  Ge11  1  0.14239600  0.36959700  0.75000000  1
  O2-  O12  1  0.20076200  0.96197500  0.89265000  1
  O2-  O13  1  0.23878700  0.20076200  0.39265000  1
  O2-  O14  1  0.96197500  0.76121300  0.39265000  1
  O2-  O15  1  0.03802500  0.23878700  0.89265000  1
  O2-  O16  1  0.76121300  0.79923800  0.89265000  1
  O2-  O17  1  0.79923800  0.03802500  0.39265000  1
  O2-  O18  1  0.79923800  0.03802500  0.10735000  1
  O2-  O19  1  0.76121300  0.79923800  0.60735000  1
  O2-  O20  1  0.03802500  0.23878700  0.60735000  1
  O2-  O21  1  0.96197500  0.76121300  0.10735000  1
  O2-  O22  1  0.23878700  0.20076200  0.10735000  1
  O2-  O23  1  0.20076200  0.96197500  0.60735000  1
  O2-  O24  1  0.07064300  0.57475000  0.75000000  1
  O2-  O25  1  0.49589300  0.07064300  0.25000000  1
  O2-  O26  1  0.57475000  0.50410700  0.25000000  1
  O2-  O27  1  0.42525000  0.49589300  0.75000000  1
  O2-  O28  1  0.50410700  0.92935700  0.75000000  1
  O2-  O29  1  0.92935700  0.42525000  0.25000000  1
