# generated using pymatgen
data_Cs3AlGe2O7
_symmetry_space_group_name_H-M   'P 1'
_cell_length_a   9.78338000
_cell_length_b   17.53496000
_cell_length_c   7.75455544
_cell_angle_alpha   90.00000000
_cell_angle_beta   126.71804276
_cell_angle_gamma   90.00000000
_symmetry_Int_Tables_number   1
_chemical_formula_structural   Cs3AlGe2O7
_chemical_formula_sum   'Cs12 Al4 Ge8 O28'
_cell_volume   1066.35422466
_cell_formula_units_Z   4
loop_
 _symmetry_equiv_pos_site_id
 _symmetry_equiv_pos_as_xyz
  1  'x, y, z'
loop_
 _atom_type_symbol
 _atom_type_oxidation_number
  Cs+  1.0
  Al3+  3.0
  Ge4+  4.0
  O2-  -2.0
loop_
 _atom_site_type_symbol
 _atom_site_label
 _atom_site_symmetry_multiplicity
 _atom_site_fract_x
 _atom_site_fract_y
 _atom_site_fract_z
 _atom_site_occupancy
  Cs+  Cs0  1  0.78975700  0.19580900  0.27201600  1
  Cs+  Cs1  1  0.50000000  0.48858100  0.25000000  1
  Cs+  Cs2  1  0.28975700  0.30419100  0.77201600  1
  Cs+  Cs3  1  0.00000000  0.01141900  0.75000000  1
  Cs+  Cs4  1  0.21024300  0.19580900  0.22798400  1
  Cs+  Cs5  1  0.71024300  0.30419100  0.72798400  1
  Cs+  Cs6  1  0.28975700  0.69580900  0.27201600  1
  Cs+  Cs7  1  0.00000000  0.98858100  0.25000000  1
  Cs+  Cs8  1  0.78975700  0.80419100  0.77201600  1
  Cs+  Cs9  1  0.50000000  0.51141900  0.75000000  1
  Cs+  Cs10  1  0.71024300  0.69580900  0.22798400  1
  Cs+  Cs11  1  0.21024300  0.80419100  0.72798400  1
  Al3+  Al12  1  0.50000000  0.05764400  0.25000000  1
  Al3+  Al13  1  0.00000000  0.44235600  0.75000000  1
  Al3+  Al14  1  0.00000000  0.55764400  0.25000000  1
  Al3+  Al15  1  0.50000000  0.94235600  0.75000000  1
  Ge4+  Ge16  1  0.16165800  0.40084300  0.23806200  1
  Ge4+  Ge17  1  0.83834200  0.40084300  0.26193800  1
  Ge4+  Ge18  1  0.66165800  0.09915700  0.73806200  1
  Ge4+  Ge19  1  0.33834200  0.09915700  0.76193800  1
  Ge4+  Ge20  1  0.66165800  0.90084300  0.23806200  1
  Ge4+  Ge21  1  0.33834200  0.90084300  0.26193800  1
  Ge4+  Ge22  1  0.16165800  0.59915700  0.73806200  1
  Ge4+  Ge23  1  0.83834200  0.59915700  0.76193800  1
  O2-  O24  1  0.65897600  0.00170000  0.26794400  1
  O2-  O25  1  0.15897600  0.49830000  0.76794400  1
  O2-  O26  1  0.90066050  0.37935350  0.52561800  1
  O2-  O27  1  0.34102400  0.00170000  0.23205600  1
  O2-  O28  1  0.14061250  0.13665150  0.56374300  1
  O2-  O29  1  0.59933950  0.12064650  0.47438200  1
  O2-  O30  1  0.64061250  0.36334850  0.06374300  1
  O2-  O31  1  0.40066050  0.12064650  0.02561800  1
  O2-  O32  1  0.50000000  0.14508200  0.75000000  1
  O2-  O33  1  0.84102400  0.49830000  0.73205600  1
  O2-  O34  1  0.85938750  0.13665150  0.93625700  1
  O2-  O35  1  0.00000000  0.35491800  0.25000000  1
  O2-  O36  1  0.35938750  0.36334850  0.43625700  1
  O2-  O37  1  0.09933950  0.37935350  0.97438200  1
  O2-  O38  1  0.15897600  0.50170000  0.26794400  1
  O2-  O39  1  0.65897600  0.99830000  0.76794400  1
  O2-  O40  1  0.40066050  0.87935350  0.52561800  1
  O2-  O41  1  0.84102400  0.50170000  0.23205600  1
  O2-  O42  1  0.64061250  0.63665150  0.56374300  1
  O2-  O43  1  0.09933950  0.62064650  0.47438200  1
  O2-  O44  1  0.14061250  0.86334850  0.06374300  1
  O2-  O45  1  0.90066050  0.62064650  0.02561800  1
  O2-  O46  1  0.00000000  0.64508200  0.75000000  1
  O2-  O47  1  0.34102400  0.99830000  0.73205600  1
  O2-  O48  1  0.35938750  0.63665150  0.93625700  1
  O2-  O49  1  0.50000000  0.85491800  0.25000000  1
  O2-  O50  1  0.85938750  0.86334850  0.43625700  1
  O2-  O51  1  0.59933950  0.87935350  0.97438200  1
