# generated using pymatgen
data_Cs6Ge2O7
_symmetry_space_group_name_H-M   'P 1'
_cell_length_a   7.31704200
_cell_length_b   9.96298300
_cell_length_c   12.30296287
_cell_angle_alpha   90.00000000
_cell_angle_beta   125.24219424
_cell_angle_gamma   90.00000000
_symmetry_Int_Tables_number   1
_chemical_formula_structural   Cs6Ge2O7
_chemical_formula_sum   'Cs12 Ge4 O14'
_cell_volume   732.50051585
_cell_formula_units_Z   2
loop_
 _symmetry_equiv_pos_site_id
 _symmetry_equiv_pos_as_xyz
  1  'x, y, z'
loop_
 _atom_type_symbol
 _atom_type_oxidation_number
  Cs+  1.0
  Ge4+  4.0
  O2-  -2.0
loop_
 _atom_site_type_symbol
 _atom_site_label
 _atom_site_symmetry_multiplicity
 _atom_site_fract_x
 _atom_site_fract_y
 _atom_site_fract_z
 _atom_site_occupancy
  Cs+  Cs0  1  0.39215300  0.21770700  0.27759600  1
  Cs+  Cs1  1  0.02800500  0.35375200  0.91338100  1
  Cs+  Cs2  1  0.79250700  0.47471200  0.54551700  1
  Cs+  Cs3  1  0.20749300  0.97471200  0.95448300  1
  Cs+  Cs4  1  0.60784700  0.71770700  0.22240400  1
  Cs+  Cs5  1  0.97199500  0.85375200  0.58661900  1
  Cs+  Cs6  1  0.02800500  0.14624800  0.41338100  1
  Cs+  Cs7  1  0.39215300  0.28229300  0.77759600  1
  Cs+  Cs8  1  0.79250700  0.02528800  0.04551700  1
  Cs+  Cs9  1  0.20749300  0.52528800  0.45448300  1
  Cs+  Cs10  1  0.97199500  0.64624800  0.08661900  1
  Cs+  Cs11  1  0.60784700  0.78229300  0.72240400  1
  Ge4+  Ge12  1  0.67153900  0.13400800  0.62506000  1
  Ge4+  Ge13  1  0.32846100  0.63400800  0.87494000  1
  Ge4+  Ge14  1  0.67153900  0.36599200  0.12506000  1
  Ge4+  Ge15  1  0.32846100  0.86599200  0.37494000  1
  O2-  O16  1  0.50000000  0.00000000  0.50000000  1
  O2-  O17  1  0.26416300  0.91872300  0.21825300  1
  O2-  O18  1  0.50265500  0.72057700  0.43398700  1
  O2-  O19  1  0.08481200  0.65722100  0.87238600  1
  O2-  O20  1  0.91518800  0.15722100  0.62761400  1
  O2-  O21  1  0.49734500  0.22057700  0.06601300  1
  O2-  O22  1  0.73583700  0.41872300  0.28174700  1
  O2-  O23  1  0.50000000  0.50000000  0.00000000  1
  O2-  O24  1  0.26416300  0.58127700  0.71825300  1
  O2-  O25  1  0.50265500  0.77942300  0.93398700  1
  O2-  O26  1  0.08481200  0.84277900  0.37238600  1
  O2-  O27  1  0.91518800  0.34277900  0.12761400  1
  O2-  O28  1  0.49734500  0.27942300  0.56601300  1
  O2-  O29  1  0.73583700  0.08127700  0.78174700  1
