# generated using pymatgen
data_CsAgO2
_symmetry_space_group_name_H-M   'P 1'
_cell_length_a   5.27554800
_cell_length_b   12.75078200
_cell_length_c   6.08956400
_cell_angle_alpha   90.00000000
_cell_angle_beta   90.00000000
_cell_angle_gamma   90.00000000
_symmetry_Int_Tables_number   1
_chemical_formula_structural   CsAgO2
_chemical_formula_sum   'Cs4 Ag4 O8'
_cell_volume   409.62890892
_cell_formula_units_Z   4
loop_
 _symmetry_equiv_pos_site_id
 _symmetry_equiv_pos_as_xyz
  1  'x, y, z'
loop_
 _atom_type_symbol
 _atom_type_oxidation_number
  Cs+  1.0
  Ag+  1.0
  O-  -1.0
loop_
 _atom_site_type_symbol
 _atom_site_label
 _atom_site_symmetry_multiplicity
 _atom_site_fract_x
 _atom_site_fract_y
 _atom_site_fract_z
 _atom_site_occupancy
  Cs+  Cs0  1  0.50000000  0.80570400  0.75000000  1
  Cs+  Cs1  1  0.00000000  0.69429600  0.25000000  1
  Cs+  Cs2  1  0.00000000  0.30570400  0.75000000  1
  Cs+  Cs3  1  0.50000000  0.19429600  0.25000000  1
  Ag+  Ag4  1  0.00000000  0.99748900  0.25000000  1
  Ag+  Ag5  1  0.50000000  0.50251100  0.75000000  1
  Ag+  Ag6  1  0.50000000  0.49748900  0.25000000  1
  Ag+  Ag7  1  0.00000000  0.00251100  0.75000000  1
  O-  O8  1  0.00000000  0.89350800  0.50500200  1
  O-  O9  1  0.50000000  0.60649200  0.00500200  1
  O-  O10  1  0.50000000  0.60649200  0.49499800  1
  O-  O11  1  0.00000000  0.89350800  0.99499800  1
  O-  O12  1  0.50000000  0.39350800  0.50500200  1
  O-  O13  1  0.00000000  0.10649200  0.00500200  1
  O-  O14  1  0.00000000  0.10649200  0.49499800  1
  O-  O15  1  0.50000000  0.39350800  0.99499800  1
