# generated using pymatgen
data_CsBO2
_symmetry_space_group_name_H-M   'P 1'
_cell_length_a   13.83533421
_cell_length_b   13.83533421
_cell_length_c   8.58412036
_cell_angle_alpha   90.00000000
_cell_angle_beta   90.00000000
_cell_angle_gamma   120.00000000
_symmetry_Int_Tables_number   1
_chemical_formula_structural   CsBO2
_chemical_formula_sum   'Cs18 B18 O36'
_cell_volume   1423.00274876
_cell_formula_units_Z   18
loop_
 _symmetry_equiv_pos_site_id
 _symmetry_equiv_pos_as_xyz
  1  'x, y, z'
loop_
 _atom_type_symbol
 _atom_type_oxidation_number
  Cs+  1.0
  B3+  3.0
  O2-  -2.0
loop_
 _atom_site_type_symbol
 _atom_site_label
 _atom_site_symmetry_multiplicity
 _atom_site_fract_x
 _atom_site_fract_y
 _atom_site_fract_z
 _atom_site_occupancy
  Cs+  Cs0  1  0.22544767  0.33333333  0.58333333  1
  Cs+  Cs1  1  0.10788567  0.77455233  0.58333333  1
  Cs+  Cs2  1  0.77455233  0.66666667  0.41666667  1
  Cs+  Cs3  1  0.33333333  0.10788567  0.41666667  1
  Cs+  Cs4  1  0.66666667  0.89211433  0.58333333  1
  Cs+  Cs5  1  0.89211433  0.22544767  0.41666667  1
  Cs+  Cs6  1  0.89211433  0.66666667  0.91666667  1
  Cs+  Cs7  1  0.77455233  0.10788567  0.91666667  1
  Cs+  Cs8  1  0.44121900  0.00000000  0.75000000  1
  Cs+  Cs9  1  0.00000000  0.44121900  0.75000000  1
  Cs+  Cs10  1  0.33333333  0.22544767  0.91666667  1
  Cs+  Cs11  1  0.55878100  0.55878100  0.75000000  1
  Cs+  Cs12  1  0.55878100  0.00000000  0.25000000  1
  Cs+  Cs13  1  0.44121900  0.44121900  0.25000000  1
  Cs+  Cs14  1  0.10788567  0.33333333  0.08333333  1
  Cs+  Cs15  1  0.66666667  0.77455233  0.08333333  1
  Cs+  Cs16  1  0.00000000  0.55878100  0.25000000  1
  Cs+  Cs17  1  0.22544767  0.89211433  0.08333333  1
  B3+  B18  1  0.10537100  0.10537100  0.25000000  1
  B3+  B19  1  0.00000000  0.10537100  0.75000000  1
  B3+  B20  1  0.10537100  0.00000000  0.75000000  1
  B3+  B21  1  0.89462900  0.89462900  0.75000000  1
  B3+  B22  1  0.89462900  0.00000000  0.25000000  1
  B3+  B23  1  0.00000000  0.89462900  0.25000000  1
  B3+  B24  1  0.77203767  0.43870433  0.58333333  1
  B3+  B25  1  0.66666667  0.43870433  0.08333333  1
  B3+  B26  1  0.77203767  0.33333333  0.08333333  1
  B3+  B27  1  0.56129567  0.22796233  0.08333333  1
  B3+  B28  1  0.56129567  0.33333333  0.58333333  1
  B3+  B29  1  0.66666667  0.22796233  0.58333333  1
  B3+  B30  1  0.43870433  0.77203767  0.91666667  1
  B3+  B31  1  0.33333333  0.77203767  0.41666667  1
  B3+  B32  1  0.43870433  0.66666667  0.41666667  1
  B3+  B33  1  0.22796233  0.56129567  0.41666667  1
  B3+  B34  1  0.22796233  0.66666667  0.91666667  1
  B3+  B35  1  0.33333333  0.56129567  0.91666667  1
  O2-  O36  1  0.10071500  0.00000000  0.25000000  1
  O2-  O37  1  0.10071500  0.10071500  0.75000000  1
  O2-  O38  1  0.89928500  0.00000000  0.75000000  1
  O2-  O39  1  0.20138900  0.00000000  0.75000000  1
  O2-  O40  1  0.20138900  0.20138900  0.25000000  1
  O2-  O41  1  0.00000000  0.79861100  0.25000000  1
  O2-  O42  1  0.79861100  0.79861100  0.75000000  1
  O2-  O43  1  0.89928500  0.89928500  0.25000000  1
  O2-  O44  1  0.00000000  0.89928500  0.75000000  1
  O2-  O45  1  0.00000000  0.10071500  0.25000000  1
  O2-  O46  1  0.79861100  0.00000000  0.25000000  1
  O2-  O47  1  0.00000000  0.20138900  0.75000000  1
  O2-  O48  1  0.76738167  0.33333333  0.58333333  1
  O2-  O49  1  0.76738167  0.43404833  0.08333333  1
  O2-  O50  1  0.56595167  0.33333333  0.08333333  1
  O2-  O51  1  0.86805567  0.33333333  0.08333333  1
  O2-  O52  1  0.86805567  0.53472233  0.58333333  1
  O2-  O53  1  0.66666667  0.13194433  0.58333333  1
  O2-  O54  1  0.46527767  0.13194433  0.08333333  1
  O2-  O55  1  0.56595167  0.23261833  0.58333333  1
  O2-  O56  1  0.66666667  0.23261833  0.08333333  1
  O2-  O57  1  0.66666667  0.43404833  0.58333333  1
  O2-  O58  1  0.46527767  0.33333333  0.58333333  1
  O2-  O59  1  0.66666667  0.53472233  0.08333333  1
  O2-  O60  1  0.43404833  0.66666667  0.91666667  1
  O2-  O61  1  0.43404833  0.76738167  0.41666667  1
  O2-  O62  1  0.23261833  0.66666667  0.41666667  1
  O2-  O63  1  0.53472233  0.66666667  0.41666667  1
  O2-  O64  1  0.53472233  0.86805567  0.91666667  1
  O2-  O65  1  0.33333333  0.46527767  0.91666667  1
  O2-  O66  1  0.13194433  0.46527767  0.41666667  1
  O2-  O67  1  0.23261833  0.56595167  0.91666667  1
  O2-  O68  1  0.33333333  0.56595167  0.41666667  1
  O2-  O69  1  0.33333333  0.76738167  0.91666667  1
  O2-  O70  1  0.13194433  0.66666667  0.91666667  1
  O2-  O71  1  0.33333333  0.86805567  0.41666667  1
