# generated using pymatgen
data_CsCuO2
_symmetry_space_group_name_H-M   'P 1'
_cell_length_a   5.37531200
_cell_length_b   12.17984000
_cell_length_c   5.51505200
_cell_angle_alpha   90.00000000
_cell_angle_beta   90.00000000
_cell_angle_gamma   90.00000000
_symmetry_Int_Tables_number   1
_chemical_formula_structural   CsCuO2
_chemical_formula_sum   'Cs4 Cu4 O8'
_cell_volume   361.07288167
_cell_formula_units_Z   4
loop_
 _symmetry_equiv_pos_site_id
 _symmetry_equiv_pos_as_xyz
  1  'x, y, z'
loop_
 _atom_type_symbol
 _atom_type_oxidation_number
  Cs+  1.0
  Cu+  1.0
  O-  -1.0
loop_
 _atom_site_type_symbol
 _atom_site_label
 _atom_site_symmetry_multiplicity
 _atom_site_fract_x
 _atom_site_fract_y
 _atom_site_fract_z
 _atom_site_occupancy
  Cs+  Cs0  1  0.00000000  0.68297700  0.75000000  1
  Cs+  Cs1  1  0.50000000  0.81702300  0.25000000  1
  Cs+  Cs2  1  0.50000000  0.18297700  0.75000000  1
  Cs+  Cs3  1  0.00000000  0.31702300  0.25000000  1
  Cu+  Cu4  1  0.00000000  0.99811400  0.75000000  1
  Cu+  Cu5  1  0.50000000  0.50188600  0.25000000  1
  Cu+  Cu6  1  0.50000000  0.49811400  0.75000000  1
  Cu+  Cu7  1  0.00000000  0.00188600  0.25000000  1
  O-  O8  1  0.00000000  0.89921900  0.00329300  1
  O-  O9  1  0.50000000  0.60078100  0.99670700  1
  O-  O10  1  0.50000000  0.60078100  0.50329300  1
  O-  O11  1  0.00000000  0.89921900  0.49670700  1
  O-  O12  1  0.50000000  0.39921900  0.00329300  1
  O-  O13  1  0.00000000  0.10078100  0.99670700  1
  O-  O14  1  0.00000000  0.10078100  0.50329300  1
  O-  O15  1  0.50000000  0.39921900  0.49670700  1
