# generated using pymatgen
data_CsLa(WO4)2
_symmetry_space_group_name_H-M   'P 1'
_cell_length_a   11.08332000
_cell_length_b   11.09896800
_cell_length_c   7.69993744
_cell_angle_alpha   90.00000000
_cell_angle_beta   129.84590784
_cell_angle_gamma   90.00000000
_symmetry_Int_Tables_number   1
_chemical_formula_structural   CsLa(WO4)2
_chemical_formula_sum   'Cs4 La4 W8 O32'
_cell_volume   727.22873275
_cell_formula_units_Z   4
loop_
 _symmetry_equiv_pos_site_id
 _symmetry_equiv_pos_as_xyz
  1  'x, y, z'
loop_
 _atom_type_symbol
 _atom_type_oxidation_number
  Cs+  1.0
  La3+  3.0
  W6+  6.0
  O2-  -2.0
loop_
 _atom_site_type_symbol
 _atom_site_label
 _atom_site_symmetry_multiplicity
 _atom_site_fract_x
 _atom_site_fract_y
 _atom_site_fract_z
 _atom_site_occupancy
  Cs+  Cs0  1  0.50000000  0.30171100  0.25000000  1
  Cs+  Cs1  1  0.50000000  0.69828900  0.75000000  1
  Cs+  Cs2  1  0.00000000  0.80171100  0.25000000  1
  Cs+  Cs3  1  0.00000000  0.19828900  0.75000000  1
  La3+  La4  1  0.50000000  0.72455800  0.25000000  1
  La3+  La5  1  0.50000000  0.27544200  0.75000000  1
  La3+  La6  1  0.00000000  0.22455800  0.25000000  1
  La3+  La7  1  0.00000000  0.77544200  0.75000000  1
  W6+  W8  1  0.31027900  0.99555600  0.27777400  1
  W6+  W9  1  0.68972100  0.00444400  0.72222600  1
  W6+  W10  1  0.68972100  0.99555600  0.22222600  1
  W6+  W11  1  0.31027900  0.00444400  0.77777400  1
  W6+  W12  1  0.81027900  0.49555600  0.27777400  1
  W6+  W13  1  0.18972100  0.50444400  0.72222600  1
  W6+  W14  1  0.18972100  0.49555600  0.22222600  1
  W6+  W15  1  0.81027900  0.50444400  0.77777400  1
  O2-  O16  1  0.31608150  0.06372950  0.06443600  1
  O2-  O17  1  0.68391850  0.93627050  0.93556400  1
  O2-  O18  1  0.68391850  0.06372950  0.43556400  1
  O2-  O19  1  0.31608150  0.93627050  0.56443600  1
  O2-  O20  1  0.77175400  0.84651600  0.36448200  1
  O2-  O21  1  0.22824600  0.15348400  0.63551800  1
  O2-  O22  1  0.22824600  0.84651600  0.13551800  1
  O2-  O23  1  0.77175400  0.15348400  0.86448200  1
  O2-  O24  1  0.52214600  0.89561700  0.47124600  1
  O2-  O25  1  0.47785400  0.10438300  0.52875400  1
  O2-  O26  1  0.47785400  0.89561700  0.02875400  1
  O2-  O27  1  0.52214600  0.10438300  0.97124600  1
  O2-  O28  1  0.13781800  0.07738800  0.19821600  1
  O2-  O29  1  0.86218200  0.92261200  0.80178400  1
  O2-  O30  1  0.86218200  0.07738800  0.30178400  1
  O2-  O31  1  0.13781800  0.92261200  0.69821600  1
  O2-  O32  1  0.81608150  0.56372950  0.06443600  1
  O2-  O33  1  0.18391850  0.43627050  0.93556400  1
  O2-  O34  1  0.18391850  0.56372950  0.43556400  1
  O2-  O35  1  0.81608150  0.43627050  0.56443600  1
  O2-  O36  1  0.27175400  0.34651600  0.36448200  1
  O2-  O37  1  0.72824600  0.65348400  0.63551800  1
  O2-  O38  1  0.72824600  0.34651600  0.13551800  1
  O2-  O39  1  0.27175400  0.65348400  0.86448200  1
  O2-  O40  1  0.02214600  0.39561700  0.47124600  1
  O2-  O41  1  0.97785400  0.60438300  0.52875400  1
  O2-  O42  1  0.97785400  0.39561700  0.02875400  1
  O2-  O43  1  0.02214600  0.60438300  0.97124600  1
  O2-  O44  1  0.63781800  0.57738800  0.19821600  1
  O2-  O45  1  0.36218200  0.42261200  0.80178400  1
  O2-  O46  1  0.36218200  0.57738800  0.30178400  1
  O2-  O47  1  0.63781800  0.42261200  0.69821600  1
