# generated using pymatgen
data_CsSc(WO4)2
_symmetry_space_group_name_H-M   'P 1'
_cell_length_a   5.92725440
_cell_length_b   5.92725440
_cell_length_c   8.10579700
_cell_angle_alpha   90.00000000
_cell_angle_beta   90.00000000
_cell_angle_gamma   120.00000000
_symmetry_Int_Tables_number   1
_chemical_formula_structural   CsSc(WO4)2
_chemical_formula_sum   'Cs1 Sc1 W2 O8'
_cell_volume   246.62295110
_cell_formula_units_Z   1
loop_
 _symmetry_equiv_pos_site_id
 _symmetry_equiv_pos_as_xyz
  1  'x, y, z'
loop_
 _atom_type_symbol
 _atom_type_oxidation_number
  Cs+  1.0
  Sc3+  3.0
  W6+  6.0
  O2-  -2.0
loop_
 _atom_site_type_symbol
 _atom_site_label
 _atom_site_symmetry_multiplicity
 _atom_site_fract_x
 _atom_site_fract_y
 _atom_site_fract_z
 _atom_site_occupancy
  Cs+  Cs0  1  0.00000000  0.00000000  0.00000000  1
  Sc3+  Sc1  1  0.00000000  0.00000000  0.50000000  1
  W6+  W2  1  0.33333333  0.66666667  0.27365400  1
  W6+  W3  1  0.66666667  0.33333333  0.72634600  1
  O2-  O4  1  0.16421300  0.83578700  0.34343100  1
  O2-  O5  1  0.83578700  0.16421300  0.65656900  1
  O2-  O6  1  0.16421300  0.32842600  0.34343100  1
  O2-  O7  1  0.83578700  0.67157400  0.65656900  1
  O2-  O8  1  0.67157400  0.83578700  0.34343100  1
  O2-  O9  1  0.32842600  0.16421300  0.65656900  1
  O2-  O10  1  0.33333333  0.66666667  0.05410600  1
  O2-  O11  1  0.66666667  0.33333333  0.94589400  1
