# generated using pymatgen
data_CsTlO
_symmetry_space_group_name_H-M   'P 1'
_cell_length_a   14.38294200
_cell_length_b   3.88342000
_cell_length_c   6.71503230
_cell_angle_alpha   90.00000000
_cell_angle_beta   106.18767396
_cell_angle_gamma   90.00000000
_symmetry_Int_Tables_number   1
_chemical_formula_structural   CsTlO
_chemical_formula_sum   'Cs4 Tl4 O4'
_cell_volume   360.19808893
_cell_formula_units_Z   4
loop_
 _symmetry_equiv_pos_site_id
 _symmetry_equiv_pos_as_xyz
  1  'x, y, z'
loop_
 _atom_type_symbol
 _atom_type_oxidation_number
  Cs+  1.0
  Tl+  1.0
  O2-  -2.0
loop_
 _atom_site_type_symbol
 _atom_site_label
 _atom_site_symmetry_multiplicity
 _atom_site_fract_x
 _atom_site_fract_y
 _atom_site_fract_z
 _atom_site_occupancy
  Cs+  Cs0  1  0.37667200  0.50000000  0.65523200  1
  Cs+  Cs1  1  0.12332800  0.00000000  0.34476800  1
  Cs+  Cs2  1  0.87667200  0.00000000  0.65523200  1
  Cs+  Cs3  1  0.62332800  0.50000000  0.34476800  1
  Tl+  Tl4  1  0.15049300  0.50000000  0.86189400  1
  Tl+  Tl5  1  0.34950700  0.00000000  0.13810600  1
  Tl+  Tl6  1  0.65049300  0.00000000  0.86189400  1
  Tl+  Tl7  1  0.84950700  0.50000000  0.13810600  1
  O2-  O8  1  0.24805200  0.00000000  0.79248600  1
  O2-  O9  1  0.25194800  0.50000000  0.20751400  1
  O2-  O10  1  0.74805200  0.50000000  0.79248600  1
  O2-  O11  1  0.75194800  0.00000000  0.20751400  1
