# generated using pymatgen
data_CsY(MoO4)2
_symmetry_space_group_name_H-M   'P 1'
_cell_length_a   6.11088059
_cell_length_b   6.11088059
_cell_length_c   8.39138100
_cell_angle_alpha   90.00000000
_cell_angle_beta   90.00000000
_cell_angle_gamma   120.00000000
_symmetry_Int_Tables_number   1
_chemical_formula_structural   CsY(MoO4)2
_chemical_formula_sum   'Cs1 Y1 Mo2 O8'
_cell_volume   271.37614361
_cell_formula_units_Z   1
loop_
 _symmetry_equiv_pos_site_id
 _symmetry_equiv_pos_as_xyz
  1  'x, y, z'
loop_
 _atom_type_symbol
 _atom_type_oxidation_number
  Cs+  1.0
  Y3+  3.0
  Mo6+  6.0
  O2-  -2.0
loop_
 _atom_site_type_symbol
 _atom_site_label
 _atom_site_symmetry_multiplicity
 _atom_site_fract_x
 _atom_site_fract_y
 _atom_site_fract_z
 _atom_site_occupancy
  Cs+  Cs0  1  0.00000000  0.00000000  0.00000000  1
  Y3+  Y1  1  0.00000000  0.00000000  0.50000000  1
  Mo6+  Mo2  1  0.33333333  0.66666667  0.27028000  1
  Mo6+  Mo3  1  0.66666667  0.33333333  0.72972000  1
  O2-  O4  1  0.17060800  0.82939200  0.33784800  1
  O2-  O5  1  0.82939200  0.17060800  0.66215200  1
  O2-  O6  1  0.17060800  0.34121600  0.33784800  1
  O2-  O7  1  0.82939200  0.65878400  0.66215200  1
  O2-  O8  1  0.65878400  0.82939200  0.33784800  1
  O2-  O9  1  0.34121600  0.17060800  0.66215200  1
  O2-  O10  1  0.33333333  0.66666667  0.06174200  1
  O2-  O11  1  0.66666667  0.33333333  0.93825800  1
