# generated using pymatgen
data_CsY(WO4)2
_symmetry_space_group_name_H-M   'P 1'
_cell_length_a   11.02925000
_cell_length_b   10.75769600
_cell_length_c   7.57192600
_cell_angle_alpha   90.00000000
_cell_angle_beta   130.04458132
_cell_angle_gamma   90.00000000
_symmetry_Int_Tables_number   1
_chemical_formula_structural   CsY(WO4)2
_chemical_formula_sum   'Cs4 Y4 W8 O32'
_cell_volume   687.76774216
_cell_formula_units_Z   4
loop_
 _symmetry_equiv_pos_site_id
 _symmetry_equiv_pos_as_xyz
  1  'x, y, z'
loop_
 _atom_type_symbol
 _atom_type_oxidation_number
  Cs+  1.0
  Y3+  3.0
  W6+  6.0
  O2-  -2.0
loop_
 _atom_site_type_symbol
 _atom_site_label
 _atom_site_symmetry_multiplicity
 _atom_site_fract_x
 _atom_site_fract_y
 _atom_site_fract_z
 _atom_site_occupancy
  Cs+  Cs0  1  0.00000000  0.80210500  0.25000000  1
  Cs+  Cs1  1  0.00000000  0.19789500  0.75000000  1
  Cs+  Cs2  1  0.50000000  0.30210500  0.25000000  1
  Cs+  Cs3  1  0.50000000  0.69789500  0.75000000  1
  Y3+  Y4  1  0.00000000  0.22263200  0.25000000  1
  Y3+  Y5  1  0.00000000  0.77736800  0.75000000  1
  Y3+  Y6  1  0.50000000  0.72263200  0.25000000  1
  Y3+  Y7  1  0.50000000  0.27736800  0.75000000  1
  W6+  W8  1  0.19220900  0.49407800  0.21442800  1
  W6+  W9  1  0.80779100  0.50592200  0.78557200  1
  W6+  W10  1  0.80779100  0.49407800  0.28557200  1
  W6+  W11  1  0.19220900  0.50592200  0.71442800  1
  W6+  W12  1  0.69220900  0.99407800  0.21442800  1
  W6+  W13  1  0.30779100  0.00592200  0.78557200  1
  W6+  W14  1  0.30779100  0.99407800  0.28557200  1
  W6+  W15  1  0.69220900  0.00592200  0.71442800  1
  O2-  O16  1  0.18383250  0.56243250  0.43348900  1
  O2-  O17  1  0.81616750  0.43756750  0.56651100  1
  O2-  O18  1  0.81616750  0.56243250  0.06651100  1
  O2-  O19  1  0.18383250  0.43756750  0.93348900  1
  O2-  O20  1  0.71476100  0.34584500  0.12599800  1
  O2-  O21  1  0.28523900  0.65415500  0.87400200  1
  O2-  O22  1  0.28523900  0.34584500  0.37400200  1
  O2-  O23  1  0.71476100  0.65415500  0.62599800  1
  O2-  O24  1  0.98235900  0.39042600  0.03623300  1
  O2-  O25  1  0.01764100  0.60957400  0.96376700  1
  O2-  O26  1  0.01764100  0.39042600  0.46376700  1
  O2-  O27  1  0.98235900  0.60957400  0.53623300  1
  O2-  O28  1  0.36284600  0.58621200  0.29747000  1
  O2-  O29  1  0.63715400  0.41378800  0.70253000  1
  O2-  O30  1  0.63715400  0.58621200  0.20253000  1
  O2-  O31  1  0.36284600  0.41378800  0.79747000  1
  O2-  O32  1  0.68383250  0.06243250  0.43348900  1
  O2-  O33  1  0.31616750  0.93756750  0.56651100  1
  O2-  O34  1  0.31616750  0.06243250  0.06651100  1
  O2-  O35  1  0.68383250  0.93756750  0.93348900  1
  O2-  O36  1  0.21476100  0.84584500  0.12599800  1
  O2-  O37  1  0.78523900  0.15415500  0.87400200  1
  O2-  O38  1  0.78523900  0.84584500  0.37400200  1
  O2-  O39  1  0.21476100  0.15415500  0.62599800  1
  O2-  O40  1  0.48235900  0.89042600  0.03623300  1
  O2-  O41  1  0.51764100  0.10957400  0.96376700  1
  O2-  O42  1  0.51764100  0.89042600  0.46376700  1
  O2-  O43  1  0.48235900  0.10957400  0.53623300  1
  O2-  O44  1  0.86284600  0.08621200  0.29747000  1
  O2-  O45  1  0.13715400  0.91378800  0.70253000  1
  O2-  O46  1  0.13715400  0.08621200  0.20253000  1
  O2-  O47  1  0.86284600  0.91378800  0.79747000  1
