# generated using pymatgen
data_Ga4GeO8
_symmetry_space_group_name_H-M   'P 1'
_cell_length_a   12.38786800
_cell_length_b   3.04750600
_cell_length_c   9.52571328
_cell_angle_alpha   90.00000000
_cell_angle_beta   125.16806793
_cell_angle_gamma   90.00000000
_symmetry_Int_Tables_number   1
_chemical_formula_structural   Ga4GeO8
_chemical_formula_sum   'Ga8 Ge2 O16'
_cell_volume   293.97361786
_cell_formula_units_Z   2
loop_
 _symmetry_equiv_pos_site_id
 _symmetry_equiv_pos_as_xyz
  1  'x, y, z'
loop_
 _atom_type_symbol
 _atom_type_oxidation_number
  Ga3+  3.0
  Ge4+  4.0
  O2-  -2.0
loop_
 _atom_site_type_symbol
 _atom_site_label
 _atom_site_symmetry_multiplicity
 _atom_site_fract_x
 _atom_site_fract_y
 _atom_site_fract_z
 _atom_site_occupancy
  Ga3+  Ga0  1  0.96256300  0.50000000  0.28297300  1
  Ga3+  Ga1  1  0.03743700  0.50000000  0.71702700  1
  Ga3+  Ga2  1  0.75841700  0.00000000  0.36044900  1
  Ga3+  Ga3  1  0.24158300  0.00000000  0.63955100  1
  Ga3+  Ga4  1  0.46256300  0.00000000  0.28297300  1
  Ga3+  Ga5  1  0.53743700  0.00000000  0.71702700  1
  Ga3+  Ga6  1  0.25841700  0.50000000  0.36044900  1
  Ga3+  Ga7  1  0.74158300  0.50000000  0.63955100  1
  Ge4+  Ge8  1  0.00000000  0.00000000  0.00000000  1
  Ge4+  Ge9  1  0.50000000  0.50000000  0.00000000  1
  O2-  O10  1  0.88978700  0.00000000  0.30430900  1
  O2-  O11  1  0.11021300  0.00000000  0.69569100  1
  O2-  O12  1  0.94070600  0.50000000  0.07210300  1
  O2-  O13  1  0.05929400  0.50000000  0.92789700  1
  O2-  O14  1  0.14587000  0.50000000  0.46254000  1
  O2-  O15  1  0.33931000  0.50000000  0.78440000  1
  O2-  O16  1  0.66069000  0.50000000  0.21560000  1
  O2-  O17  1  0.85413000  0.50000000  0.53746000  1
  O2-  O18  1  0.38978700  0.50000000  0.30430900  1
  O2-  O19  1  0.61021300  0.50000000  0.69569100  1
  O2-  O20  1  0.44070600  0.00000000  0.07210300  1
  O2-  O21  1  0.55929400  0.00000000  0.92789700  1
  O2-  O22  1  0.64587000  0.00000000  0.46254000  1
  O2-  O23  1  0.83931000  0.00000000  0.78440000  1
  O2-  O24  1  0.16069000  0.00000000  0.21560000  1
  O2-  O25  1  0.35413000  0.00000000  0.53746000  1
