# generated using pymatgen
data_GePbO3
_symmetry_space_group_name_H-M   'P 1'
_cell_length_a   15.87053500
_cell_length_b   15.87053500
_cell_length_c   7.39461266
_cell_angle_alpha   90.00000000
_cell_angle_beta   90.00000000
_cell_angle_gamma   120.00000000
_symmetry_Int_Tables_number   1
_chemical_formula_structural   GePbO3
_chemical_formula_sum   'Ge18 Pb18 O54'
_cell_volume   1612.98079419
_cell_formula_units_Z   18
loop_
 _symmetry_equiv_pos_site_id
 _symmetry_equiv_pos_as_xyz
  1  'x, y, z'
loop_
 _atom_type_symbol
 _atom_type_oxidation_number
  Ge4+  4.0
  Pb2+  2.0
  O2-  -2.0
loop_
 _atom_site_type_symbol
 _atom_site_label
 _atom_site_symmetry_multiplicity
 _atom_site_fract_x
 _atom_site_fract_y
 _atom_site_fract_z
 _atom_site_occupancy
  Ge4+  Ge0  1  0.78020067  0.95710133  0.47806033  1
  Ge4+  Ge1  1  0.70956533  0.15643267  0.81139367  1
  Ge4+  Ge2  1  0.88646600  0.37623200  0.85527300  1
  Ge4+  Ge3  1  0.15643267  0.44686733  0.18860633  1
  Ge4+  Ge4  1  0.95710133  0.17690067  0.52193967  1
  Ge4+  Ge5  1  0.51023400  0.88646600  0.14472700  1
  Ge4+  Ge6  1  0.44686733  0.29043467  0.81139367  1
  Ge4+  Ge7  1  0.37623200  0.48976600  0.14472700  1
  Ge4+  Ge8  1  0.55313267  0.70956533  0.18860633  1
  Ge4+  Ge9  1  0.82309933  0.78020067  0.52193967  1
  Ge4+  Ge10  1  0.62376800  0.51023400  0.85527300  1
  Ge4+  Ge11  1  0.17690067  0.21979933  0.47806033  1
  Ge4+  Ge12  1  0.11353400  0.62376800  0.14472700  1
  Ge4+  Ge13  1  0.04289867  0.82309933  0.47806033  1
  Ge4+  Ge14  1  0.21979933  0.04289867  0.52193967  1
  Ge4+  Ge15  1  0.48976600  0.11353400  0.85527300  1
  Ge4+  Ge16  1  0.29043467  0.84356733  0.18860633  1
  Ge4+  Ge17  1  0.84356733  0.55313267  0.81139367  1
  Pb2+  Pb18  1  0.92269200  0.38042200  0.36956600  1
  Pb2+  Pb19  1  0.54227000  0.92269200  0.63043400  1
  Pb2+  Pb20  1  0.71375533  0.12439667  0.29710067  1
  Pb2+  Pb21  1  0.12439667  0.41064133  0.70289933  1
  Pb2+  Pb22  1  0.74397467  0.95291133  0.96376733  1
  Pb2+  Pb23  1  0.95291133  0.20893667  0.03623267  1
  Pb2+  Pb24  1  0.58935867  0.71375533  0.70289933  1
  Pb2+  Pb25  1  0.20893667  0.25602533  0.96376733  1
  Pb2+  Pb26  1  0.38042200  0.45773000  0.63043400  1
  Pb2+  Pb27  1  0.79106333  0.74397467  0.03623267  1
  Pb2+  Pb28  1  0.41064133  0.28624467  0.29710067  1
  Pb2+  Pb29  1  0.61957800  0.54227000  0.36956600  1
  Pb2+  Pb30  1  0.25602533  0.04708867  0.03623267  1
  Pb2+  Pb31  1  0.87560333  0.58935867  0.29710067  1
  Pb2+  Pb32  1  0.04708867  0.79106333  0.96376733  1
  Pb2+  Pb33  1  0.45773000  0.07730800  0.36956600  1
  Pb2+  Pb34  1  0.07730800  0.61957800  0.63043400  1
  Pb2+  Pb35  1  0.28624467  0.87560333  0.70289933  1
  O2-  O36  1  0.15495767  0.54392333  0.06459233  1
  O2-  O37  1  0.68392167  0.89740333  0.63433933  1
  O2-  O38  1  0.58490133  0.91876067  0.95150867  1
  O2-  O39  1  0.89740333  0.21348167  0.36566067  1
  O2-  O40  1  0.91876067  0.33385933  0.04849133  1
  O2-  O41  1  0.05563233  0.17837567  0.39792567  1
  O2-  O42  1  0.54681500  0.98274500  0.30100600  1
  O2-  O43  1  0.74790600  0.99947400  0.28484200  1
  O2-  O44  1  0.98274500  0.43593000  0.69899400  1
  O2-  O45  1  0.76926333  0.11985167  0.96767267  1
  O2-  O46  1  0.78941000  0.27770100  0.73125900  1
  O2-  O47  1  0.87725667  0.05563233  0.60207433  1
  O2-  O48  1  0.99947400  0.25156800  0.71515800  1
  O2-  O49  1  0.61103433  0.15495767  0.93540767  1
  O2-  O50  1  0.11985167  0.35058833  0.03232733  1
  O2-  O51  1  0.51170900  0.78941000  0.26874100  1
  O2-  O52  1  0.08176533  0.41457267  0.38182467  1
  O2-  O53  1  0.66719267  0.08176533  0.61817533  1
  O2-  O54  1  0.82162433  0.87725667  0.39792567  1
  O2-  O55  1  0.35058833  0.23073667  0.96767267  1
  O2-  O56  1  0.25156800  0.25209400  0.28484200  1
  O2-  O57  1  0.56407000  0.54681500  0.69899400  1
  O2-  O58  1  0.58542733  0.66719267  0.38182467  1
  O2-  O59  1  0.72229900  0.51170900  0.73125900  1
  O2-  O60  1  0.21348167  0.31607833  0.63433933  1
  O2-  O61  1  0.41457267  0.33280733  0.61817533  1
  O2-  O62  1  0.64941167  0.76926333  0.03232733  1
  O2-  O63  1  0.43593000  0.45318500  0.30100600  1
  O2-  O64  1  0.45607667  0.61103433  0.06459233  1
  O2-  O65  1  0.54392333  0.38896567  0.93540767  1
  O2-  O66  1  0.66614067  0.58490133  0.04849133  1
  O2-  O67  1  0.27770100  0.48829100  0.26874100  1
  O2-  O68  1  0.78651833  0.68392167  0.36566067  1
  O2-  O69  1  0.17837567  0.12274333  0.60207433  1
  O2-  O70  1  0.74843200  0.74790600  0.71515800  1
  O2-  O71  1  0.33385933  0.41509867  0.95150867  1
  O2-  O72  1  0.48829100  0.21059000  0.73125900  1
  O2-  O73  1  0.01725500  0.56407000  0.30100600  1
  O2-  O74  1  0.91823467  0.58542733  0.61817533  1
  O2-  O75  1  0.23073667  0.88014833  0.03232733  1
  O2-  O76  1  0.25209400  0.00052600  0.71515800  1
  O2-  O77  1  0.38896567  0.84504233  0.06459233  1
  O2-  O78  1  0.88014833  0.64941167  0.96767267  1
  O2-  O79  1  0.08123933  0.66614067  0.95150867  1
  O2-  O80  1  0.31607833  0.10259667  0.36566067  1
  O2-  O81  1  0.10259667  0.78651833  0.63433933  1
  O2-  O82  1  0.12274333  0.94436767  0.39792567  1
  O2-  O83  1  0.21059000  0.72229900  0.26874100  1
  O2-  O84  1  0.33280733  0.91823467  0.38182467  1
  O2-  O85  1  0.94436767  0.82162433  0.60207433  1
  O2-  O86  1  0.45318500  0.01725500  0.69899400  1
  O2-  O87  1  0.84504233  0.45607667  0.93540767  1
  O2-  O88  1  0.41509867  0.08123933  0.04849133  1
  O2-  O89  1  0.00052600  0.74843200  0.28484200  1
