# generated using pymatgen
data_Hg2GeO4
_symmetry_space_group_name_H-M   'P 1'
_cell_length_a   6.73869400
_cell_length_b   11.25599800
_cell_length_c   11.66157600
_cell_angle_alpha   90.00000000
_cell_angle_beta   90.00000000
_cell_angle_gamma   90.00000000
_symmetry_Int_Tables_number   1
_chemical_formula_structural   Hg2GeO4
_chemical_formula_sum   'Hg16 Ge8 O32'
_cell_volume   884.53900808
_cell_formula_units_Z   8
loop_
 _symmetry_equiv_pos_site_id
 _symmetry_equiv_pos_as_xyz
  1  'x, y, z'
loop_
 _atom_type_symbol
 _atom_type_oxidation_number
  Hg2+  2.0
  Ge4+  4.0
  O2-  -2.0
loop_
 _atom_site_type_symbol
 _atom_site_label
 _atom_site_symmetry_multiplicity
 _atom_site_fract_x
 _atom_site_fract_y
 _atom_site_fract_z
 _atom_site_occupancy
  Hg2+  Hg0  1  0.50000000  0.18206200  0.00000000  1
  Hg2+  Hg1  1  0.50000000  0.81793800  0.00000000  1
  Hg2+  Hg2  1  0.75000000  0.06793800  0.25000000  1
  Hg2+  Hg3  1  0.75000000  0.43206200  0.25000000  1
  Hg2+  Hg4  1  0.50000000  0.68206200  0.50000000  1
  Hg2+  Hg5  1  0.50000000  0.31793800  0.50000000  1
  Hg2+  Hg6  1  0.75000000  0.56793800  0.75000000  1
  Hg2+  Hg7  1  0.75000000  0.93206200  0.75000000  1
  Hg2+  Hg8  1  0.00000000  0.18206200  0.50000000  1
  Hg2+  Hg9  1  0.00000000  0.81793800  0.50000000  1
  Hg2+  Hg10  1  0.25000000  0.06793800  0.75000000  1
  Hg2+  Hg11  1  0.25000000  0.43206200  0.75000000  1
  Hg2+  Hg12  1  0.00000000  0.68206200  0.00000000  1
  Hg2+  Hg13  1  0.00000000  0.31793800  0.00000000  1
  Hg2+  Hg14  1  0.25000000  0.56793800  0.25000000  1
  Hg2+  Hg15  1  0.25000000  0.93206200  0.25000000  1
  Ge4+  Ge16  1  0.00000000  0.00000000  0.00000000  1
  Ge4+  Ge17  1  0.75000000  0.75000000  0.25000000  1
  Ge4+  Ge18  1  0.00000000  0.50000000  0.50000000  1
  Ge4+  Ge19  1  0.75000000  0.25000000  0.75000000  1
  Ge4+  Ge20  1  0.50000000  0.00000000  0.50000000  1
  Ge4+  Ge21  1  0.25000000  0.75000000  0.75000000  1
  Ge4+  Ge22  1  0.50000000  0.50000000  0.00000000  1
  Ge4+  Ge23  1  0.25000000  0.25000000  0.25000000  1
  O2-  O24  1  0.85407250  0.39946250  0.41697100  1
  O2-  O25  1  0.85407250  0.10053750  0.08302900  1
  O2-  O26  1  0.64592750  0.39946250  0.08302900  1
  O2-  O27  1  0.64592750  0.10053750  0.41697100  1
  O2-  O28  1  0.89592750  0.85053750  0.33302900  1
  O2-  O29  1  0.39592750  0.14946250  0.16697100  1
  O2-  O30  1  0.10407250  0.14946250  0.33302900  1
  O2-  O31  1  0.60407250  0.85053750  0.16697100  1
  O2-  O32  1  0.85407250  0.89946250  0.91697100  1
  O2-  O33  1  0.85407250  0.60053750  0.58302900  1
  O2-  O34  1  0.64592750  0.89946250  0.58302900  1
  O2-  O35  1  0.64592750  0.60053750  0.91697100  1
  O2-  O36  1  0.89592750  0.35053750  0.83302900  1
  O2-  O37  1  0.39592750  0.64946250  0.66697100  1
  O2-  O38  1  0.10407250  0.64946250  0.83302900  1
  O2-  O39  1  0.60407250  0.35053750  0.66697100  1
  O2-  O40  1  0.35407250  0.39946250  0.91697100  1
  O2-  O41  1  0.35407250  0.10053750  0.58302900  1
  O2-  O42  1  0.14592750  0.39946250  0.58302900  1
  O2-  O43  1  0.14592750  0.10053750  0.91697100  1
  O2-  O44  1  0.39592750  0.85053750  0.83302900  1
  O2-  O45  1  0.89592750  0.14946250  0.66697100  1
  O2-  O46  1  0.60407250  0.14946250  0.83302900  1
  O2-  O47  1  0.10407250  0.85053750  0.66697100  1
  O2-  O48  1  0.35407250  0.89946250  0.41697100  1
  O2-  O49  1  0.35407250  0.60053750  0.08302900  1
  O2-  O50  1  0.14592750  0.89946250  0.08302900  1
  O2-  O51  1  0.14592750  0.60053750  0.41697100  1
  O2-  O52  1  0.39592750  0.35053750  0.33302900  1
  O2-  O53  1  0.89592750  0.64946250  0.16697100  1
  O2-  O54  1  0.60407250  0.64946250  0.33302900  1
  O2-  O55  1  0.10407250  0.35053750  0.16697100  1
