# generated using pymatgen
data_In2Pt2O7
_symmetry_space_group_name_H-M   'P 1'
_cell_length_a   10.13033200
_cell_length_b   10.13033200
_cell_length_c   10.13033200
_cell_angle_alpha   90.00000000
_cell_angle_beta   90.00000000
_cell_angle_gamma   90.00000000
_symmetry_Int_Tables_number   1
_chemical_formula_structural   In2Pt2O7
_chemical_formula_sum   'In16 Pt16 O56'
_cell_volume   1039.61140678
_cell_formula_units_Z   8
loop_
 _symmetry_equiv_pos_site_id
 _symmetry_equiv_pos_as_xyz
  1  'x, y, z'
loop_
 _atom_type_symbol
 _atom_type_oxidation_number
  In3+  3.0
  Pt4+  4.0
  O2-  -2.0
loop_
 _atom_site_type_symbol
 _atom_site_label
 _atom_site_symmetry_multiplicity
 _atom_site_fract_x
 _atom_site_fract_y
 _atom_site_fract_z
 _atom_site_occupancy
  In3+  In0  1  0.12500000  0.62500000  0.12500000  1
  In3+  In1  1  0.12500000  0.87500000  0.37500000  1
  In3+  In2  1  0.37500000  0.62500000  0.37500000  1
  In3+  In3  1  0.37500000  0.87500000  0.12500000  1
  In3+  In4  1  0.12500000  0.12500000  0.62500000  1
  In3+  In5  1  0.12500000  0.37500000  0.87500000  1
  In3+  In6  1  0.37500000  0.12500000  0.87500000  1
  In3+  In7  1  0.37500000  0.37500000  0.62500000  1
  In3+  In8  1  0.62500000  0.62500000  0.62500000  1
  In3+  In9  1  0.62500000  0.87500000  0.87500000  1
  In3+  In10  1  0.87500000  0.62500000  0.87500000  1
  In3+  In11  1  0.87500000  0.87500000  0.62500000  1
  In3+  In12  1  0.62500000  0.12500000  0.12500000  1
  In3+  In13  1  0.62500000  0.37500000  0.37500000  1
  In3+  In14  1  0.87500000  0.12500000  0.37500000  1
  In3+  In15  1  0.87500000  0.37500000  0.12500000  1
  Pt4+  Pt16  1  0.87500000  0.87500000  0.12500000  1
  Pt4+  Pt17  1  0.37500000  0.12500000  0.37500000  1
  Pt4+  Pt18  1  0.62500000  0.87500000  0.37500000  1
  Pt4+  Pt19  1  0.12500000  0.12500000  0.12500000  1
  Pt4+  Pt20  1  0.87500000  0.37500000  0.62500000  1
  Pt4+  Pt21  1  0.37500000  0.62500000  0.87500000  1
  Pt4+  Pt22  1  0.62500000  0.37500000  0.87500000  1
  Pt4+  Pt23  1  0.12500000  0.62500000  0.62500000  1
  Pt4+  Pt24  1  0.37500000  0.87500000  0.62500000  1
  Pt4+  Pt25  1  0.87500000  0.12500000  0.87500000  1
  Pt4+  Pt26  1  0.12500000  0.87500000  0.87500000  1
  Pt4+  Pt27  1  0.62500000  0.12500000  0.62500000  1
  Pt4+  Pt28  1  0.37500000  0.37500000  0.12500000  1
  Pt4+  Pt29  1  0.87500000  0.62500000  0.37500000  1
  Pt4+  Pt30  1  0.12500000  0.37500000  0.37500000  1
  Pt4+  Pt31  1  0.62500000  0.62500000  0.12500000  1
  O2-  O32  1  0.25000000  0.75000000  0.25000000  1
  O2-  O33  1  0.28341400  0.00000000  0.50000000  1
  O2-  O34  1  0.50000000  0.21658600  0.50000000  1
  O2-  O35  1  0.50000000  0.78341400  0.50000000  1
  O2-  O36  1  0.00000000  0.00000000  0.21658600  1
  O2-  O37  1  0.50000000  0.00000000  0.28341400  1
  O2-  O38  1  0.03341400  0.25000000  0.25000000  1
  O2-  O39  1  0.71658600  0.00000000  0.50000000  1
  O2-  O40  1  0.25000000  0.25000000  0.46658600  1
  O2-  O41  1  0.25000000  0.03341400  0.25000000  1
  O2-  O42  1  0.25000000  0.25000000  0.03341400  1
  O2-  O43  1  0.25000000  0.46658600  0.25000000  1
  O2-  O44  1  0.46658600  0.25000000  0.25000000  1
  O2-  O45  1  0.00000000  0.00000000  0.50000000  1
  O2-  O46  1  0.25000000  0.25000000  0.75000000  1
  O2-  O47  1  0.28341400  0.50000000  0.00000000  1
  O2-  O48  1  0.50000000  0.71658600  0.00000000  1
  O2-  O49  1  0.50000000  0.28341400  0.00000000  1
  O2-  O50  1  0.00000000  0.50000000  0.71658600  1
  O2-  O51  1  0.50000000  0.50000000  0.78341400  1
  O2-  O52  1  0.03341400  0.75000000  0.75000000  1
  O2-  O53  1  0.71658600  0.50000000  0.00000000  1
  O2-  O54  1  0.25000000  0.75000000  0.96658600  1
  O2-  O55  1  0.25000000  0.53341400  0.75000000  1
  O2-  O56  1  0.25000000  0.75000000  0.53341400  1
  O2-  O57  1  0.25000000  0.96658600  0.75000000  1
  O2-  O58  1  0.46658600  0.75000000  0.75000000  1
  O2-  O59  1  0.00000000  0.50000000  0.00000000  1
  O2-  O60  1  0.75000000  0.75000000  0.75000000  1
  O2-  O61  1  0.78341400  0.00000000  0.00000000  1
  O2-  O62  1  0.00000000  0.21658600  0.00000000  1
  O2-  O63  1  0.00000000  0.78341400  0.00000000  1
  O2-  O64  1  0.50000000  0.00000000  0.71658600  1
  O2-  O65  1  0.00000000  0.00000000  0.78341400  1
  O2-  O66  1  0.53341400  0.25000000  0.75000000  1
  O2-  O67  1  0.21658600  0.00000000  0.00000000  1
  O2-  O68  1  0.75000000  0.25000000  0.96658600  1
  O2-  O69  1  0.75000000  0.03341400  0.75000000  1
  O2-  O70  1  0.75000000  0.25000000  0.53341400  1
  O2-  O71  1  0.75000000  0.46658600  0.75000000  1
  O2-  O72  1  0.96658600  0.25000000  0.75000000  1
  O2-  O73  1  0.50000000  0.00000000  0.00000000  1
  O2-  O74  1  0.75000000  0.25000000  0.25000000  1
  O2-  O75  1  0.78341400  0.50000000  0.50000000  1
  O2-  O76  1  0.00000000  0.71658600  0.50000000  1
  O2-  O77  1  0.00000000  0.28341400  0.50000000  1
  O2-  O78  1  0.50000000  0.50000000  0.21658600  1
  O2-  O79  1  0.00000000  0.50000000  0.28341400  1
  O2-  O80  1  0.53341400  0.75000000  0.25000000  1
  O2-  O81  1  0.21658600  0.50000000  0.50000000  1
  O2-  O82  1  0.75000000  0.75000000  0.46658600  1
  O2-  O83  1  0.75000000  0.53341400  0.25000000  1
  O2-  O84  1  0.75000000  0.75000000  0.03341400  1
  O2-  O85  1  0.75000000  0.96658600  0.25000000  1
  O2-  O86  1  0.96658600  0.75000000  0.25000000  1
  O2-  O87  1  0.50000000  0.50000000  0.50000000  1
