# generated using pymatgen
data_In6Ga2PtO8
_symmetry_space_group_name_H-M   'P 1'
_cell_length_a   10.16461400
_cell_length_b   10.16461400
_cell_length_c   10.16461400
_cell_angle_alpha   90.00000000
_cell_angle_beta   90.00000000
_cell_angle_gamma   90.00000000
_symmetry_Int_Tables_number   1
_chemical_formula_structural   In6Ga2PtO8
_chemical_formula_sum   'In24 Ga8 Pt4 O32'
_cell_volume   1050.20159374
_cell_formula_units_Z   4
loop_
 _symmetry_equiv_pos_site_id
 _symmetry_equiv_pos_as_xyz
  1  'x, y, z'
loop_
 _atom_type_symbol
 _atom_type_oxidation_number
  In2+  2.0
  Ga3+  3.0
  Pt2-  -2.0
  O2-  -2.0
loop_
 _atom_site_type_symbol
 _atom_site_label
 _atom_site_symmetry_multiplicity
 _atom_site_fract_x
 _atom_site_fract_y
 _atom_site_fract_z
 _atom_site_occupancy
  In2+  In0  1  0.00000000  0.00000000  0.74676200  1
  In2+  In1  1  0.50000000  0.24676200  0.00000000  1
  In2+  In2  1  0.50000000  0.75323800  0.00000000  1
  In2+  In3  1  0.25323800  0.00000000  0.00000000  1
  In2+  In4  1  0.74676200  0.00000000  0.00000000  1
  In2+  In5  1  0.50000000  0.00000000  0.75323800  1
  In2+  In6  1  0.00000000  0.50000000  0.24676200  1
  In2+  In7  1  0.50000000  0.74676200  0.50000000  1
  In2+  In8  1  0.50000000  0.25323800  0.50000000  1
  In2+  In9  1  0.25323800  0.50000000  0.50000000  1
  In2+  In10  1  0.74676200  0.50000000  0.50000000  1
  In2+  In11  1  0.50000000  0.50000000  0.25323800  1
  In2+  In12  1  0.50000000  0.00000000  0.24676200  1
  In2+  In13  1  0.00000000  0.24676200  0.50000000  1
  In2+  In14  1  0.00000000  0.75323800  0.50000000  1
  In2+  In15  1  0.75323800  0.00000000  0.50000000  1
  In2+  In16  1  0.24676200  0.00000000  0.50000000  1
  In2+  In17  1  0.00000000  0.00000000  0.25323800  1
  In2+  In18  1  0.50000000  0.50000000  0.74676200  1
  In2+  In19  1  0.00000000  0.74676200  0.00000000  1
  In2+  In20  1  0.00000000  0.25323800  0.00000000  1
  In2+  In21  1  0.75323800  0.50000000  0.00000000  1
  In2+  In22  1  0.24676200  0.50000000  0.00000000  1
  In2+  In23  1  0.00000000  0.50000000  0.75323800  1
  Ga3+  Ga24  1  0.25000000  0.75000000  0.75000000  1
  Ga3+  Ga25  1  0.25000000  0.25000000  0.75000000  1
  Ga3+  Ga26  1  0.25000000  0.25000000  0.25000000  1
  Ga3+  Ga27  1  0.25000000  0.75000000  0.25000000  1
  Ga3+  Ga28  1  0.75000000  0.75000000  0.25000000  1
  Ga3+  Ga29  1  0.75000000  0.25000000  0.25000000  1
  Ga3+  Ga30  1  0.75000000  0.25000000  0.75000000  1
  Ga3+  Ga31  1  0.75000000  0.75000000  0.75000000  1
  Pt2-  Pt32  1  0.00000000  0.00000000  0.00000000  1
  Pt2-  Pt33  1  0.00000000  0.50000000  0.50000000  1
  Pt2-  Pt34  1  0.50000000  0.00000000  0.50000000  1
  Pt2-  Pt35  1  0.50000000  0.50000000  0.00000000  1
  O2-  O36  1  0.14133433  0.85866567  0.64133433  1
  O2-  O37  1  0.85866567  0.85866567  0.64133433  1
  O2-  O38  1  0.14133433  0.14133433  0.64133433  1
  O2-  O39  1  0.64133433  0.85866567  0.85866567  1
  O2-  O40  1  0.35866567  0.85866567  0.85866567  1
  O2-  O41  1  0.85866567  0.14133433  0.64133433  1
  O2-  O42  1  0.64133433  0.14133433  0.85866567  1
  O2-  O43  1  0.35866567  0.14133433  0.85866567  1
  O2-  O44  1  0.14133433  0.35866567  0.14133433  1
  O2-  O45  1  0.85866567  0.35866567  0.14133433  1
  O2-  O46  1  0.14133433  0.64133433  0.14133433  1
  O2-  O47  1  0.64133433  0.35866567  0.35866567  1
  O2-  O48  1  0.35866567  0.35866567  0.35866567  1
  O2-  O49  1  0.85866567  0.64133433  0.14133433  1
  O2-  O50  1  0.64133433  0.64133433  0.35866567  1
  O2-  O51  1  0.35866567  0.64133433  0.35866567  1
  O2-  O52  1  0.64133433  0.85866567  0.14133433  1
  O2-  O53  1  0.35866567  0.85866567  0.14133433  1
  O2-  O54  1  0.64133433  0.14133433  0.14133433  1
  O2-  O55  1  0.14133433  0.85866567  0.35866567  1
  O2-  O56  1  0.85866567  0.85866567  0.35866567  1
  O2-  O57  1  0.35866567  0.14133433  0.14133433  1
  O2-  O58  1  0.14133433  0.14133433  0.35866567  1
  O2-  O59  1  0.85866567  0.14133433  0.35866567  1
  O2-  O60  1  0.64133433  0.35866567  0.64133433  1
  O2-  O61  1  0.35866567  0.35866567  0.64133433  1
  O2-  O62  1  0.64133433  0.64133433  0.64133433  1
  O2-  O63  1  0.14133433  0.35866567  0.85866567  1
  O2-  O64  1  0.85866567  0.35866567  0.85866567  1
  O2-  O65  1  0.35866567  0.64133433  0.64133433  1
  O2-  O66  1  0.14133433  0.64133433  0.85866567  1
  O2-  O67  1  0.85866567  0.64133433  0.85866567  1
