# generated using pymatgen
data_InBO3
_symmetry_space_group_name_H-M   'P 1'
_cell_length_a   4.89672205
_cell_length_b   4.89672205
_cell_length_c   15.73338634
_cell_angle_alpha   90.00000000
_cell_angle_beta   90.00000000
_cell_angle_gamma   120.00000000
_symmetry_Int_Tables_number   1
_chemical_formula_structural   InBO3
_chemical_formula_sum   'In6 B6 O18'
_cell_volume   326.71099074
_cell_formula_units_Z   6
loop_
 _symmetry_equiv_pos_site_id
 _symmetry_equiv_pos_as_xyz
  1  'x, y, z'
loop_
 _atom_type_symbol
 _atom_type_oxidation_number
  In3+  3.0
  B3+  3.0
  O2-  -2.0
loop_
 _atom_site_type_symbol
 _atom_site_label
 _atom_site_symmetry_multiplicity
 _atom_site_fract_x
 _atom_site_fract_y
 _atom_site_fract_z
 _atom_site_occupancy
  In3+  In0  1  0.00000000  0.00000000  0.00000000  1
  In3+  In1  1  0.33333333  0.66666667  0.16666667  1
  In3+  In2  1  0.66666667  0.33333333  0.33333333  1
  In3+  In3  1  0.00000000  0.00000000  0.50000000  1
  In3+  In4  1  0.33333333  0.66666667  0.66666667  1
  In3+  In5  1  0.66666667  0.33333333  0.83333333  1
  B3+  B6  1  0.66666667  0.33333333  0.08333333  1
  B3+  B7  1  0.00000000  0.00000000  0.25000000  1
  B3+  B8  1  0.33333333  0.66666667  0.41666667  1
  B3+  B9  1  0.66666667  0.33333333  0.58333333  1
  B3+  B10  1  0.00000000  0.00000000  0.75000000  1
  B3+  B11  1  0.33333333  0.66666667  0.91666667  1
  O2-  O12  1  0.00000000  0.28315900  0.25000000  1
  O2-  O13  1  0.71684100  0.71684100  0.25000000  1
  O2-  O14  1  0.28315900  0.00000000  0.25000000  1
  O2-  O15  1  0.66666667  0.05017433  0.08333333  1
  O2-  O16  1  0.94982567  0.61649233  0.08333333  1
  O2-  O17  1  0.38350767  0.33333333  0.08333333  1
  O2-  O18  1  0.66666667  0.61649233  0.58333333  1
  O2-  O19  1  0.38350767  0.05017433  0.58333333  1
  O2-  O20  1  0.94982567  0.33333333  0.58333333  1
  O2-  O21  1  0.33333333  0.38350767  0.41666667  1
  O2-  O22  1  0.61649233  0.94982567  0.41666667  1
  O2-  O23  1  0.05017433  0.66666667  0.41666667  1
  O2-  O24  1  0.33333333  0.94982567  0.91666667  1
  O2-  O25  1  0.05017433  0.38350767  0.91666667  1
  O2-  O26  1  0.61649233  0.66666667  0.91666667  1
  O2-  O27  1  0.00000000  0.71684100  0.75000000  1
  O2-  O28  1  0.28315900  0.28315900  0.75000000  1
  O2-  O29  1  0.71684100  0.00000000  0.75000000  1
