# generated using pymatgen
data_K2Al2Sb2O7
_symmetry_space_group_name_H-M   'P 1'
_cell_length_a   5.71611765
_cell_length_b   5.71611765
_cell_length_c   8.23475200
_cell_angle_alpha   90.00000000
_cell_angle_beta   90.00000000
_cell_angle_gamma   120.00000000
_symmetry_Int_Tables_number   1
_chemical_formula_structural   K2Al2Sb2O7
_chemical_formula_sum   'K2 Al2 Sb2 O7'
_cell_volume   233.01478302
_cell_formula_units_Z   1
loop_
 _symmetry_equiv_pos_site_id
 _symmetry_equiv_pos_as_xyz
  1  'x, y, z'
loop_
 _atom_type_symbol
 _atom_type_oxidation_number
  K+  1.0
  Al3+  3.0
  Sb3+  3.0
  O2-  -2.0
loop_
 _atom_site_type_symbol
 _atom_site_label
 _atom_site_symmetry_multiplicity
 _atom_site_fract_x
 _atom_site_fract_y
 _atom_site_fract_z
 _atom_site_occupancy
  K+  K0  1  0.66666667  0.33333333  0.40930600  1
  K+  K1  1  0.33333333  0.66666667  0.59069400  1
  Al3+  Al2  1  0.00000000  0.00000000  0.21043200  1
  Al3+  Al3  1  0.00000000  0.00000000  0.78956800  1
  Sb3+  Sb4  1  0.66666667  0.33333333  0.84401800  1
  Sb3+  Sb5  1  0.33333333  0.66666667  0.15598200  1
  O2-  O6  1  0.16794200  0.83205800  0.28973400  1
  O2-  O7  1  0.83205800  0.16794200  0.71026600  1
  O2-  O8  1  0.33588400  0.16794200  0.71026600  1
  O2-  O9  1  0.16794200  0.33588400  0.28973400  1
  O2-  O10  1  0.00000000  0.00000000  0.00000000  1
  O2-  O11  1  0.66411600  0.83205800  0.28973400  1
  O2-  O12  1  0.83205800  0.66411600  0.71026600  1
