# generated using pymatgen
data_K2Pb2O3
_symmetry_space_group_name_H-M   'P 1'
_cell_length_a   8.61625200
_cell_length_b   8.61625200
_cell_length_c   8.61625200
_cell_angle_alpha   90.00000000
_cell_angle_beta   90.00000000
_cell_angle_gamma   90.00000000
_symmetry_Int_Tables_number   1
_chemical_formula_structural   K2Pb2O3
_chemical_formula_sum   'K8 Pb8 O12'
_cell_volume   639.66881254
_cell_formula_units_Z   4
loop_
 _symmetry_equiv_pos_site_id
 _symmetry_equiv_pos_as_xyz
  1  'x, y, z'
loop_
 _atom_type_symbol
 _atom_type_oxidation_number
  K+  1.0
  Pb2+  2.0
  O2-  -2.0
loop_
 _atom_site_type_symbol
 _atom_site_label
 _atom_site_symmetry_multiplicity
 _atom_site_fract_x
 _atom_site_fract_y
 _atom_site_fract_z
 _atom_site_occupancy
  K+  K0  1  0.97635900  0.47635900  0.02364100  1
  K+  K1  1  0.02364100  0.02364100  0.02364100  1
  K+  K2  1  0.02364100  0.97635900  0.47635900  1
  K+  K3  1  0.47635900  0.02364100  0.97635900  1
  K+  K4  1  0.47635900  0.97635900  0.52364100  1
  K+  K5  1  0.52364100  0.52364100  0.52364100  1
  K+  K6  1  0.52364100  0.47635900  0.97635900  1
  K+  K7  1  0.97635900  0.52364100  0.47635900  1
  Pb2+  Pb8  1  0.74495800  0.75504200  0.24495800  1
  Pb2+  Pb9  1  0.75504200  0.24495800  0.74495800  1
  Pb2+  Pb10  1  0.25504200  0.25504200  0.25504200  1
  Pb2+  Pb11  1  0.24495800  0.74495800  0.75504200  1
  Pb2+  Pb12  1  0.24495800  0.25504200  0.74495800  1
  Pb2+  Pb13  1  0.25504200  0.74495800  0.24495800  1
  Pb2+  Pb14  1  0.75504200  0.75504200  0.75504200  1
  Pb2+  Pb15  1  0.74495800  0.24495800  0.25504200  1
  O2-  O16  1  0.00000000  0.75000000  0.20990500  1
  O2-  O17  1  0.00000000  0.25000000  0.29009500  1
  O2-  O18  1  0.75000000  0.20990500  0.00000000  1
  O2-  O19  1  0.20990500  0.00000000  0.75000000  1
  O2-  O20  1  0.29009500  0.00000000  0.25000000  1
  O2-  O21  1  0.25000000  0.29009500  0.00000000  1
  O2-  O22  1  0.50000000  0.25000000  0.70990500  1
  O2-  O23  1  0.50000000  0.75000000  0.79009500  1
  O2-  O24  1  0.25000000  0.70990500  0.50000000  1
  O2-  O25  1  0.70990500  0.50000000  0.25000000  1
  O2-  O26  1  0.79009500  0.50000000  0.75000000  1
  O2-  O27  1  0.75000000  0.79009500  0.50000000  1
