# generated using pymatgen
data_K2ZrO3
_symmetry_space_group_name_H-M   'P 1'
_cell_length_a   5.95096700
_cell_length_b   7.07465900
_cell_length_c   10.60943600
_cell_angle_alpha   90.00000000
_cell_angle_beta   90.00000000
_cell_angle_gamma   90.00000000
_symmetry_Int_Tables_number   1
_chemical_formula_structural   K2ZrO3
_chemical_formula_sum   'K8 Zr4 O12'
_cell_volume   446.66852542
_cell_formula_units_Z   4
loop_
 _symmetry_equiv_pos_site_id
 _symmetry_equiv_pos_as_xyz
  1  'x, y, z'
loop_
 _atom_type_symbol
 _atom_type_oxidation_number
  K+  1.0
  Zr4+  4.0
  O2-  -2.0
loop_
 _atom_site_type_symbol
 _atom_site_label
 _atom_site_symmetry_multiplicity
 _atom_site_fract_x
 _atom_site_fract_y
 _atom_site_fract_z
 _atom_site_occupancy
  K+  K0  1  0.23540500  0.61469300  0.08565400  1
  K+  K1  1  0.23540500  0.61469300  0.41434600  1
  K+  K2  1  0.76459500  0.38530700  0.91434600  1
  K+  K3  1  0.26459500  0.11469300  0.58565400  1
  K+  K4  1  0.26459500  0.11469300  0.91434600  1
  K+  K5  1  0.76459500  0.38530700  0.58565400  1
  K+  K6  1  0.73540500  0.88530700  0.41434600  1
  K+  K7  1  0.73540500  0.88530700  0.08565400  1
  Zr4+  Zr8  1  0.27958000  0.15907600  0.25000000  1
  Zr4+  Zr9  1  0.77958000  0.34092400  0.25000000  1
  Zr4+  Zr10  1  0.22042000  0.65907600  0.75000000  1
  Zr4+  Zr11  1  0.72042000  0.84092400  0.75000000  1
  O2-  O12  1  0.98314900  0.77044800  0.62155900  1
  O2-  O13  1  0.48314900  0.72955200  0.87844100  1
  O2-  O14  1  0.51685100  0.27044800  0.37844100  1
  O2-  O15  1  0.01685100  0.22955200  0.12155900  1
  O2-  O16  1  0.01685100  0.22955200  0.37844100  1
  O2-  O17  1  0.51685100  0.27044800  0.12155900  1
  O2-  O18  1  0.48314900  0.72955200  0.62155900  1
  O2-  O19  1  0.98314900  0.77044800  0.87844100  1
  O2-  O20  1  0.15841500  0.39058600  0.75000000  1
  O2-  O21  1  0.84158500  0.60941400  0.25000000  1
  O2-  O22  1  0.34158500  0.89058600  0.25000000  1
  O2-  O23  1  0.65841500  0.10941400  0.75000000  1
