# generated using pymatgen
data_K2ZrGe2O7
_symmetry_space_group_name_H-M   'P 1'
_cell_length_a   10.11792600
_cell_length_b   5.64719800
_cell_length_c   13.19888981
_cell_angle_alpha   90.00000000
_cell_angle_beta   104.75465027
_cell_angle_gamma   90.00000000
_symmetry_Int_Tables_number   1
_chemical_formula_structural   K2ZrGe2O7
_chemical_formula_sum   'K8 Zr4 Ge8 O28'
_cell_volume   729.28913040
_cell_formula_units_Z   4
loop_
 _symmetry_equiv_pos_site_id
 _symmetry_equiv_pos_as_xyz
  1  'x, y, z'
loop_
 _atom_type_symbol
 _atom_type_oxidation_number
  K+  1.0
  Zr4+  4.0
  Ge4+  4.0
  O2-  -2.0
loop_
 _atom_site_type_symbol
 _atom_site_label
 _atom_site_symmetry_multiplicity
 _atom_site_fract_x
 _atom_site_fract_y
 _atom_site_fract_z
 _atom_site_occupancy
  K+  K0  1  0.35287950  0.71225350  0.82224100  1
  K+  K1  1  0.14712050  0.21225350  0.67775900  1
  K+  K2  1  0.64712050  0.28774650  0.17775900  1
  K+  K3  1  0.85287950  0.78774650  0.32224100  1
  K+  K4  1  0.85287950  0.21225350  0.82224100  1
  K+  K5  1  0.64712050  0.71225350  0.67775900  1
  K+  K6  1  0.14712050  0.78774650  0.17775900  1
  K+  K7  1  0.35287950  0.28774650  0.32224100  1
  Zr4+  Zr8  1  0.75000000  0.25000000  0.50000000  1
  Zr4+  Zr9  1  0.25000000  0.25000000  0.00000000  1
  Zr4+  Zr10  1  0.25000000  0.75000000  0.50000000  1
  Zr4+  Zr11  1  0.75000000  0.75000000  0.00000000  1
  Ge4+  Ge12  1  0.03728050  0.27931150  0.37784700  1
  Ge4+  Ge13  1  0.03728050  0.72068850  0.87784700  1
  Ge4+  Ge14  1  0.96271950  0.72068850  0.62215300  1
  Ge4+  Ge15  1  0.96271950  0.27931150  0.12215300  1
  Ge4+  Ge16  1  0.53728050  0.77931150  0.37784700  1
  Ge4+  Ge17  1  0.53728050  0.22068850  0.87784700  1
  Ge4+  Ge18  1  0.46271950  0.22068850  0.62215300  1
  Ge4+  Ge19  1  0.46271950  0.77931150  0.12215300  1
  O2-  O20  1  0.86809900  0.05599700  0.04421100  1
  O2-  O21  1  0.87559300  0.54753900  0.12714400  1
  O2-  O22  1  0.87559300  0.45246100  0.62714400  1
  O2-  O23  1  0.12440700  0.45246100  0.87285600  1
  O2-  O24  1  0.00000000  0.13959700  0.25000000  1
  O2-  O25  1  0.00000000  0.86040300  0.75000000  1
  O2-  O26  1  0.37505050  0.16176750  0.89898500  1
  O2-  O27  1  0.12494950  0.66176750  0.60101500  1
  O2-  O28  1  0.13190100  0.05599700  0.45578900  1
  O2-  O29  1  0.87505050  0.33823250  0.39898500  1
  O2-  O30  1  0.13190100  0.94400300  0.95578900  1
  O2-  O31  1  0.86809900  0.94400300  0.54421100  1
  O2-  O32  1  0.62494950  0.83823250  0.10101500  1
  O2-  O33  1  0.12440700  0.54753900  0.37285600  1
  O2-  O34  1  0.36809900  0.55599700  0.04421100  1
  O2-  O35  1  0.37559300  0.04753900  0.12714400  1
  O2-  O36  1  0.37559300  0.95246100  0.62714400  1
  O2-  O37  1  0.62440700  0.95246100  0.87285600  1
  O2-  O38  1  0.50000000  0.63959700  0.25000000  1
  O2-  O39  1  0.50000000  0.36040300  0.75000000  1
  O2-  O40  1  0.87505050  0.66176750  0.89898500  1
  O2-  O41  1  0.62494950  0.16176750  0.60101500  1
  O2-  O42  1  0.63190100  0.55599700  0.45578900  1
  O2-  O43  1  0.37505050  0.83823250  0.39898500  1
  O2-  O44  1  0.63190100  0.44400300  0.95578900  1
  O2-  O45  1  0.36809900  0.44400300  0.54421100  1
  O2-  O46  1  0.12494950  0.33823250  0.10101500  1
  O2-  O47  1  0.62440700  0.04753900  0.37285600  1
