# generated using pymatgen
data_K3BiO3
_symmetry_space_group_name_H-M   'P 1'
_cell_length_a   10.88993200
_cell_length_b   10.88993200
_cell_length_c   10.88993200
_cell_angle_alpha   90.00000000
_cell_angle_beta   90.00000000
_cell_angle_gamma   90.00000000
_symmetry_Int_Tables_number   1
_chemical_formula_structural   K3BiO3
_chemical_formula_sum   'K24 Bi8 O24'
_cell_volume   1291.44377636
_cell_formula_units_Z   8
loop_
 _symmetry_equiv_pos_site_id
 _symmetry_equiv_pos_as_xyz
  1  'x, y, z'
loop_
 _atom_type_symbol
 _atom_type_oxidation_number
  K+  1.0
  Bi3+  3.0
  O2-  -2.0
loop_
 _atom_site_type_symbol
 _atom_site_label
 _atom_site_symmetry_multiplicity
 _atom_site_fract_x
 _atom_site_fract_y
 _atom_site_fract_z
 _atom_site_occupancy
  K+  K0  1  0.12278400  0.60787000  0.12278400  1
  K+  K1  1  0.12278400  0.39213000  0.87721600  1
  K+  K2  1  0.39213000  0.12278400  0.87721600  1
  K+  K3  1  0.37721600  0.37721600  0.10787000  1
  K+  K4  1  0.39213000  0.87721600  0.12278400  1
  K+  K5  1  0.87721600  0.39213000  0.12278400  1
  K+  K6  1  0.37721600  0.10787000  0.37721600  1
  K+  K7  1  0.12278400  0.87721600  0.39213000  1
  K+  K8  1  0.87721600  0.12278400  0.39213000  1
  K+  K9  1  0.12278400  0.12278400  0.60787000  1
  K+  K10  1  0.60787000  0.12278400  0.12278400  1
  K+  K11  1  0.10787000  0.37721600  0.37721600  1
  K+  K12  1  0.62278400  0.10787000  0.62278400  1
  K+  K13  1  0.62278400  0.89213000  0.37721600  1
  K+  K14  1  0.89213000  0.62278400  0.37721600  1
  K+  K15  1  0.87721600  0.87721600  0.60787000  1
  K+  K16  1  0.89213000  0.37721600  0.62278400  1
  K+  K17  1  0.37721600  0.89213000  0.62278400  1
  K+  K18  1  0.87721600  0.60787000  0.87721600  1
  K+  K19  1  0.62278400  0.37721600  0.89213000  1
  K+  K20  1  0.37721600  0.62278400  0.89213000  1
  K+  K21  1  0.62278400  0.62278400  0.10787000  1
  K+  K22  1  0.10787000  0.62278400  0.62278400  1
  K+  K23  1  0.60787000  0.87721600  0.87721600  1
  Bi3+  Bi24  1  0.14814600  0.14814600  0.14814600  1
  Bi3+  Bi25  1  0.35185400  0.64814600  0.35185400  1
  Bi3+  Bi26  1  0.64814600  0.35185400  0.35185400  1
  Bi3+  Bi27  1  0.35185400  0.35185400  0.64814600  1
  Bi3+  Bi28  1  0.64814600  0.64814600  0.64814600  1
  Bi3+  Bi29  1  0.85185400  0.14814600  0.85185400  1
  Bi3+  Bi30  1  0.14814600  0.85185400  0.85185400  1
  Bi3+  Bi31  1  0.85185400  0.85185400  0.14814600  1
  O2-  O32  1  0.13090250  0.13090250  0.34078250  1
  O2-  O33  1  0.65921750  0.86909750  0.13090250  1
  O2-  O34  1  0.86909750  0.65921750  0.13090250  1
  O2-  O35  1  0.36909750  0.84078250  0.36909750  1
  O2-  O36  1  0.65921750  0.13090250  0.86909750  1
  O2-  O37  1  0.13090250  0.65921750  0.86909750  1
  O2-  O38  1  0.13090250  0.34078250  0.13090250  1
  O2-  O39  1  0.86909750  0.13090250  0.65921750  1
  O2-  O40  1  0.13090250  0.86909750  0.65921750  1
  O2-  O41  1  0.36909750  0.36909750  0.84078250  1
  O2-  O42  1  0.84078250  0.36909750  0.36909750  1
  O2-  O43  1  0.34078250  0.13090250  0.13090250  1
  O2-  O44  1  0.63090250  0.63090250  0.84078250  1
  O2-  O45  1  0.15921750  0.36909750  0.63090250  1
  O2-  O46  1  0.36909750  0.15921750  0.63090250  1
  O2-  O47  1  0.86909750  0.34078250  0.86909750  1
  O2-  O48  1  0.15921750  0.63090250  0.36909750  1
  O2-  O49  1  0.63090250  0.15921750  0.36909750  1
  O2-  O50  1  0.63090250  0.84078250  0.63090250  1
  O2-  O51  1  0.36909750  0.63090250  0.15921750  1
  O2-  O52  1  0.63090250  0.36909750  0.15921750  1
  O2-  O53  1  0.86909750  0.86909750  0.34078250  1
  O2-  O54  1  0.34078250  0.86909750  0.86909750  1
  O2-  O55  1  0.84078250  0.63090250  0.63090250  1
