# generated using pymatgen
data_K3NaCr2O8
_symmetry_space_group_name_H-M   'P 1'
_cell_length_a   10.32459192
_cell_length_b   5.94333967
_cell_length_c   15.29990970
_cell_angle_alpha   90.00000000
_cell_angle_beta   90.10086042
_cell_angle_gamma   90.00000000
_symmetry_Int_Tables_number   1
_chemical_formula_structural   K3NaCr2O8
_chemical_formula_sum   'K12 Na4 Cr8 O32'
_cell_volume   938.84012236
_cell_formula_units_Z   4
loop_
 _symmetry_equiv_pos_site_id
 _symmetry_equiv_pos_as_xyz
  1  'x, y, z'
loop_
 _atom_type_symbol
 _atom_type_oxidation_number
  K+  1.0
  Na+  1.0
  Cr6+  6.0
  O2-  -2.0
loop_
 _atom_site_type_symbol
 _atom_site_label
 _atom_site_symmetry_multiplicity
 _atom_site_fract_x
 _atom_site_fract_y
 _atom_site_fract_z
 _atom_site_occupancy
  K+  K0  1  0.50000000  0.44554350  0.25000000  1
  K+  K1  1  0.50000000  0.55445650  0.75000000  1
  K+  K2  1  0.32960750  0.01941250  0.91083600  1
  K+  K3  1  0.17039250  0.51941250  0.58916400  1
  K+  K4  1  0.32960750  0.98058750  0.41083600  1
  K+  K5  1  0.17039250  0.48058750  0.08916400  1
  K+  K6  1  0.00000000  0.94554350  0.25000000  1
  K+  K7  1  0.00000000  0.05445650  0.75000000  1
  K+  K8  1  0.82960750  0.51941250  0.91083600  1
  K+  K9  1  0.67039250  0.01941250  0.58916400  1
  K+  K10  1  0.82960750  0.48058750  0.41083600  1
  K+  K11  1  0.67039250  0.98058750  0.08916400  1
  Na+  Na12  1  0.50000000  0.50000000  0.50000000  1
  Na+  Na13  1  0.50000000  0.50000000  0.00000000  1
  Na+  Na14  1  0.00000000  0.00000000  0.50000000  1
  Na+  Na15  1  0.00000000  0.00000000  0.00000000  1
  Cr6+  Cr16  1  0.33701550  0.01668650  0.63410200  1
  Cr6+  Cr17  1  0.16298450  0.51668650  0.86589800  1
  Cr6+  Cr18  1  0.16298450  0.48331350  0.36589800  1
  Cr6+  Cr19  1  0.33701550  0.98331350  0.13410200  1
  Cr6+  Cr20  1  0.83701550  0.51668650  0.63410200  1
  Cr6+  Cr21  1  0.66298450  0.01668650  0.86589800  1
  Cr6+  Cr22  1  0.66298450  0.98331350  0.36589800  1
  Cr6+  Cr23  1  0.83701550  0.48331350  0.13410200  1
  O2-  O24  1  0.18665650  0.03360150  0.59344000  1
  O2-  O25  1  0.31334350  0.53360150  0.90656000  1
  O2-  O26  1  0.31334350  0.46639850  0.40656000  1
  O2-  O27  1  0.18665650  0.96639850  0.09344000  1
  O2-  O28  1  0.41392450  0.26010850  0.61667700  1
  O2-  O29  1  0.08607550  0.76010850  0.88332300  1
  O2-  O30  1  0.08607550  0.23989150  0.38332300  1
  O2-  O31  1  0.41392450  0.73989150  0.11667700  1
  O2-  O32  1  0.41531850  0.81096650  0.58108600  1
  O2-  O33  1  0.08468150  0.31096650  0.91891400  1
  O2-  O34  1  0.08468150  0.68903350  0.41891400  1
  O2-  O35  1  0.41531850  0.18903350  0.08108600  1
  O2-  O36  1  0.33236700  0.04539600  0.23909600  1
  O2-  O37  1  0.16763300  0.54539600  0.26090400  1
  O2-  O38  1  0.33236700  0.95460400  0.73909600  1
  O2-  O39  1  0.16763300  0.45460400  0.76090400  1
  O2-  O40  1  0.68665650  0.53360150  0.59344000  1
  O2-  O41  1  0.81334350  0.03360150  0.90656000  1
  O2-  O42  1  0.81334350  0.96639850  0.40656000  1
  O2-  O43  1  0.68665650  0.46639850  0.09344000  1
  O2-  O44  1  0.91392450  0.76010850  0.61667700  1
  O2-  O45  1  0.58607550  0.26010850  0.88332300  1
  O2-  O46  1  0.58607550  0.73989150  0.38332300  1
  O2-  O47  1  0.91392450  0.23989150  0.11667700  1
  O2-  O48  1  0.91531850  0.31096650  0.58108600  1
  O2-  O49  1  0.58468150  0.81096650  0.91891400  1
  O2-  O50  1  0.58468150  0.18903350  0.41891400  1
  O2-  O51  1  0.91531850  0.68903350  0.08108600  1
  O2-  O52  1  0.83236700  0.54539600  0.23909600  1
  O2-  O53  1  0.66763300  0.04539600  0.26090400  1
  O2-  O54  1  0.83236700  0.45460400  0.73909600  1
  O2-  O55  1  0.66763300  0.95460400  0.76090400  1
