# generated using pymatgen
data_K3ScSi2O7
_symmetry_space_group_name_H-M   'P 1'
_cell_length_a   5.68077797
_cell_length_b   5.68077797
_cell_length_c   13.84420600
_cell_angle_alpha   90.00000000
_cell_angle_beta   90.00000000
_cell_angle_gamma   120.00000000
_symmetry_Int_Tables_number   1
_chemical_formula_structural   K3ScSi2O7
_chemical_formula_sum   'K6 Sc2 Si4 O14'
_cell_volume   386.91388565
_cell_formula_units_Z   2
loop_
 _symmetry_equiv_pos_site_id
 _symmetry_equiv_pos_as_xyz
  1  'x, y, z'
loop_
 _atom_type_symbol
 _atom_type_oxidation_number
  K+  1.0
  Sc3+  3.0
  Si4+  4.0
  O2-  -2.0
loop_
 _atom_site_type_symbol
 _atom_site_label
 _atom_site_symmetry_multiplicity
 _atom_site_fract_x
 _atom_site_fract_y
 _atom_site_fract_z
 _atom_site_occupancy
  K+  K0  1  0.66666667  0.33333333  0.90716500  1
  K+  K1  1  0.00000000  0.00000000  0.75000000  1
  K+  K2  1  0.33333333  0.66666667  0.09283500  1
  K+  K3  1  0.66666667  0.33333333  0.59283500  1
  K+  K4  1  0.33333333  0.66666667  0.40716500  1
  K+  K5  1  0.00000000  0.00000000  0.25000000  1
  Sc3+  Sc6  1  0.00000000  0.00000000  0.00000000  1
  Sc3+  Sc7  1  0.00000000  0.00000000  0.50000000  1
  Si4+  Si8  1  0.66666667  0.33333333  0.12904800  1
  Si4+  Si9  1  0.33333333  0.66666667  0.87095200  1
  Si4+  Si10  1  0.33333333  0.66666667  0.62904800  1
  Si4+  Si11  1  0.66666667  0.33333333  0.37095200  1
  O2-  O12  1  0.17508400  0.82491600  0.90764400  1
  O2-  O13  1  0.17508400  0.35016800  0.59235600  1
  O2-  O14  1  0.35016800  0.17508400  0.09235600  1
  O2-  O15  1  0.82491600  0.64983200  0.40764400  1
  O2-  O16  1  0.82491600  0.17508400  0.40764400  1
  O2-  O17  1  0.82491600  0.17508400  0.09235600  1
  O2-  O18  1  0.17508400  0.82491600  0.59235600  1
  O2-  O19  1  0.82491600  0.64983200  0.09235600  1
  O2-  O20  1  0.17508400  0.35016800  0.90764400  1
  O2-  O21  1  0.35016800  0.17508400  0.40764400  1
  O2-  O22  1  0.64983200  0.82491600  0.59235600  1
  O2-  O23  1  0.64983200  0.82491600  0.90764400  1
  O2-  O24  1  0.33333333  0.66666667  0.75000000  1
  O2-  O25  1  0.66666667  0.33333333  0.25000000  1
