# generated using pymatgen
data_KAgO2
_symmetry_space_group_name_H-M   'P 1'
_cell_length_a   4.38894000
_cell_length_b   12.20974800
_cell_length_c   6.01970000
_cell_angle_alpha   90.00000000
_cell_angle_beta   90.00000000
_cell_angle_gamma   90.00000000
_symmetry_Int_Tables_number   1
_chemical_formula_structural   KAgO2
_chemical_formula_sum   'K4 Ag4 O8'
_cell_volume   322.58278900
_cell_formula_units_Z   4
loop_
 _symmetry_equiv_pos_site_id
 _symmetry_equiv_pos_as_xyz
  1  'x, y, z'
loop_
 _atom_type_symbol
 _atom_type_oxidation_number
  K+  1.0
  Ag+  1.0
  O-  -1.0
loop_
 _atom_site_type_symbol
 _atom_site_label
 _atom_site_symmetry_multiplicity
 _atom_site_fract_x
 _atom_site_fract_y
 _atom_site_fract_z
 _atom_site_occupancy
  K+  K0  1  0.00000000  0.70607000  0.75000000  1
  K+  K1  1  0.50000000  0.79393000  0.25000000  1
  K+  K2  1  0.50000000  0.20607000  0.75000000  1
  K+  K3  1  0.00000000  0.29393000  0.25000000  1
  Ag+  Ag4  1  0.00000000  0.99675000  0.75000000  1
  Ag+  Ag5  1  0.50000000  0.50325000  0.25000000  1
  Ag+  Ag6  1  0.50000000  0.49675000  0.75000000  1
  Ag+  Ag7  1  0.00000000  0.00325000  0.25000000  1
  O-  O8  1  0.00000000  0.88764000  0.00659000  1
  O-  O9  1  0.50000000  0.61236000  0.50659000  1
  O-  O10  1  0.00000000  0.88764000  0.49341000  1
  O-  O11  1  0.50000000  0.61236000  0.99341000  1
  O-  O12  1  0.50000000  0.38764000  0.00659000  1
  O-  O13  1  0.00000000  0.11236000  0.50659000  1
  O-  O14  1  0.50000000  0.38764000  0.49341000  1
  O-  O15  1  0.00000000  0.11236000  0.99341000  1
