# generated using pymatgen
data_KAsO2
_symmetry_space_group_name_H-M   'P 1'
_cell_length_a   5.51303400
_cell_length_b   7.45400500
_cell_length_c   7.55211100
_cell_angle_alpha   90.00000000
_cell_angle_beta   90.00000000
_cell_angle_gamma   90.00000000
_symmetry_Int_Tables_number   1
_chemical_formula_structural   KAsO2
_chemical_formula_sum   'K4 As4 O8'
_cell_volume   310.34783148
_cell_formula_units_Z   4
loop_
 _symmetry_equiv_pos_site_id
 _symmetry_equiv_pos_as_xyz
  1  'x, y, z'
loop_
 _atom_type_symbol
 _atom_type_oxidation_number
  K+  1.0
  As3+  3.0
  O2-  -2.0
loop_
 _atom_site_type_symbol
 _atom_site_label
 _atom_site_symmetry_multiplicity
 _atom_site_fract_x
 _atom_site_fract_y
 _atom_site_fract_z
 _atom_site_occupancy
  K+  K0  1  0.25000000  0.36443000  0.40732700  1
  K+  K1  1  0.75000000  0.36443000  0.09267300  1
  K+  K2  1  0.75000000  0.63557000  0.59267300  1
  K+  K3  1  0.25000000  0.63557000  0.90732700  1
  As3+  As4  1  0.25000000  0.84924900  0.37638200  1
  As3+  As5  1  0.75000000  0.15075100  0.62361800  1
  As3+  As6  1  0.75000000  0.84924900  0.12361800  1
  As3+  As7  1  0.25000000  0.15075100  0.87638200  1
  O2-  O8  1  0.50000000  0.26538800  0.75000000  1
  O2-  O9  1  0.00000000  0.73461200  0.25000000  1
  O2-  O10  1  0.50000000  0.73461200  0.25000000  1
  O2-  O11  1  0.00000000  0.26538800  0.75000000  1
  O2-  O12  1  0.25000000  0.70905600  0.55745500  1
  O2-  O13  1  0.25000000  0.29094400  0.05745500  1
  O2-  O14  1  0.75000000  0.70905600  0.94254500  1
  O2-  O15  1  0.75000000  0.29094400  0.44254500  1
