# generated using pymatgen
data_KBaY(BO3)2
_symmetry_space_group_name_H-M   'P 1'
_cell_length_a   5.47398113
_cell_length_b   5.47398113
_cell_length_c   18.17090800
_cell_angle_alpha   90.00000000
_cell_angle_beta   90.00000000
_cell_angle_gamma   120.00000000
_symmetry_Int_Tables_number   1
_chemical_formula_structural   KBaY(BO3)2
_chemical_formula_sum   'K3 Ba3 Y3 B6 O18'
_cell_volume   471.53491213
_cell_formula_units_Z   3
loop_
 _symmetry_equiv_pos_site_id
 _symmetry_equiv_pos_as_xyz
  1  'x, y, z'
loop_
 _atom_type_symbol
 _atom_type_oxidation_number
  K+  1.0
  Ba2+  2.0
  Y3+  3.0
  B3+  3.0
  O2-  -2.0
loop_
 _atom_site_type_symbol
 _atom_site_label
 _atom_site_symmetry_multiplicity
 _atom_site_fract_x
 _atom_site_fract_y
 _atom_site_fract_z
 _atom_site_occupancy
  K+  K0  1  0.00000000  0.00000000  0.78024700  1
  K+  K1  1  0.66666667  0.33333333  0.11358033  1
  K+  K2  1  0.33333333  0.66666667  0.44691367  1
  Ba2+  Ba3  1  0.33333333  0.66666667  0.87434933  1
  Ba2+  Ba4  1  0.00000000  0.00000000  0.20768267  1
  Ba2+  Ba5  1  0.66666667  0.33333333  0.54101600  1
  Y3+  Y6  1  0.33333333  0.66666667  0.66869833  1
  Y3+  Y7  1  0.00000000  0.00000000  0.00203167  1
  Y3+  Y8  1  0.66666667  0.33333333  0.33536500  1
  B3+  B9  1  0.66666667  0.33333333  0.74657667  1
  B3+  B10  1  0.66666667  0.33333333  0.92312767  1
  B3+  B11  1  0.33333333  0.66666667  0.07991000  1
  B3+  B12  1  0.33333333  0.66666667  0.25646100  1
  B3+  B13  1  0.00000000  0.00000000  0.41324333  1
  B3+  B14  1  0.00000000  0.00000000  0.58979433  1
  O2-  O15  1  0.51962767  0.03925533  0.74627633  1
  O2-  O16  1  0.96074467  0.48037233  0.74627633  1
  O2-  O17  1  0.51962767  0.48037233  0.74627633  1
  O2-  O18  1  0.81325183  0.62650367  0.92258167  1
  O2-  O19  1  0.37349633  0.18674817  0.92258167  1
  O2-  O20  1  0.81325183  0.18674817  0.92258167  1
  O2-  O21  1  0.18629433  0.37258867  0.07960967  1
  O2-  O22  1  0.62741133  0.81370567  0.07960967  1
  O2-  O23  1  0.18629433  0.81370567  0.07960967  1
  O2-  O24  1  0.47991850  0.95983700  0.25591500  1
  O2-  O25  1  0.04016300  0.52008150  0.25591500  1
  O2-  O26  1  0.47991850  0.52008150  0.25591500  1
  O2-  O27  1  0.85296100  0.70592200  0.41294300  1
  O2-  O28  1  0.29407800  0.14703900  0.41294300  1
  O2-  O29  1  0.85296100  0.14703900  0.41294300  1
  O2-  O30  1  0.14658517  0.29317033  0.58924833  1
  O2-  O31  1  0.70682967  0.85341483  0.58924833  1
  O2-  O32  1  0.14658517  0.85341483  0.58924833  1
