# generated using pymatgen
data_KBi(WO4)2
_symmetry_space_group_name_H-M   'P 1'
_cell_length_a   11.12046600
_cell_length_b   10.90780200
_cell_length_c   7.53203175
_cell_angle_alpha   90.00000000
_cell_angle_beta   130.66244534
_cell_angle_gamma   90.00000000
_symmetry_Int_Tables_number   1
_chemical_formula_structural   KBi(WO4)2
_chemical_formula_sum   'K4 Bi4 W8 O32'
_cell_volume   693.04785613
_cell_formula_units_Z   4
loop_
 _symmetry_equiv_pos_site_id
 _symmetry_equiv_pos_as_xyz
  1  'x, y, z'
loop_
 _atom_type_symbol
 _atom_type_oxidation_number
  K+  1.0
  Bi3+  3.0
  W6+  6.0
  O2-  -2.0
loop_
 _atom_site_type_symbol
 _atom_site_label
 _atom_site_symmetry_multiplicity
 _atom_site_fract_x
 _atom_site_fract_y
 _atom_site_fract_z
 _atom_site_occupancy
  K+  K0  1  0.00000000  0.28667600  0.75000000  1
  K+  K1  1  0.00000000  0.71332400  0.25000000  1
  K+  K2  1  0.50000000  0.78667600  0.75000000  1
  K+  K3  1  0.50000000  0.21332400  0.25000000  1
  Bi3+  Bi4  1  0.00000000  0.28026300  0.25000000  1
  Bi3+  Bi5  1  0.00000000  0.71973700  0.75000000  1
  Bi3+  Bi6  1  0.50000000  0.78026300  0.25000000  1
  Bi3+  Bi7  1  0.50000000  0.21973700  0.75000000  1
  W6+  W8  1  0.69436550  0.50460050  0.21403900  1
  W6+  W9  1  0.69436550  0.49539950  0.71403900  1
  W6+  W10  1  0.30563450  0.50460050  0.28596100  1
  W6+  W11  1  0.30563450  0.49539950  0.78596100  1
  W6+  W12  1  0.19436550  0.00460050  0.21403900  1
  W6+  W13  1  0.19436550  0.99539950  0.71403900  1
  W6+  W14  1  0.80563450  0.00460050  0.28596100  1
  W6+  W15  1  0.80563450  0.99539950  0.78596100  1
  O2-  O16  1  0.86482500  0.40817700  0.31613700  1
  O2-  O17  1  0.13517500  0.40817700  0.18386300  1
  O2-  O18  1  0.13517500  0.59182300  0.68386300  1
  O2-  O19  1  0.86482500  0.59182300  0.81613700  1
  O2-  O20  1  0.78721200  0.65295400  0.36633300  1
  O2-  O21  1  0.21278800  0.65295400  0.13366700  1
  O2-  O22  1  0.21278800  0.34704600  0.63366700  1
  O2-  O23  1  0.78721200  0.34704600  0.86633300  1
  O2-  O24  1  0.68800450  0.55798150  0.94287700  1
  O2-  O25  1  0.31199550  0.55798150  0.55712300  1
  O2-  O26  1  0.31199550  0.44201850  0.05712300  1
  O2-  O27  1  0.68800450  0.44201850  0.44287700  1
  O2-  O28  1  0.98395550  0.89163850  0.52810600  1
  O2-  O29  1  0.01604450  0.89163850  0.97189400  1
  O2-  O30  1  0.01604450  0.10836150  0.47189400  1
  O2-  O31  1  0.98395550  0.10836150  0.02810600  1
  O2-  O32  1  0.36482500  0.90817700  0.31613700  1
  O2-  O33  1  0.63517500  0.90817700  0.18386300  1
  O2-  O34  1  0.63517500  0.09182300  0.68386300  1
  O2-  O35  1  0.36482500  0.09182300  0.81613700  1
  O2-  O36  1  0.28721200  0.15295400  0.36633300  1
  O2-  O37  1  0.71278800  0.15295400  0.13366700  1
  O2-  O38  1  0.71278800  0.84704600  0.63366700  1
  O2-  O39  1  0.28721200  0.84704600  0.86633300  1
  O2-  O40  1  0.18800450  0.05798150  0.94287700  1
  O2-  O41  1  0.81199550  0.05798150  0.55712300  1
  O2-  O42  1  0.81199550  0.94201850  0.05712300  1
  O2-  O43  1  0.18800450  0.94201850  0.44287700  1
  O2-  O44  1  0.48395550  0.39163850  0.52810600  1
  O2-  O45  1  0.51604450  0.39163850  0.97189400  1
  O2-  O46  1  0.51604450  0.60836150  0.47189400  1
  O2-  O47  1  0.48395550  0.60836150  0.02810600  1
