# generated using pymatgen
data_KBiO2
_symmetry_space_group_name_H-M   'P 1'
_cell_length_a   7.92937600
_cell_length_b   8.20856000
_cell_length_c   6.08178429
_cell_angle_alpha   90.00000000
_cell_angle_beta   124.97814961
_cell_angle_gamma   90.00000000
_symmetry_Int_Tables_number   1
_chemical_formula_structural   KBiO2
_chemical_formula_sum   'K4 Bi4 O8'
_cell_volume   324.35264534
_cell_formula_units_Z   4
loop_
 _symmetry_equiv_pos_site_id
 _symmetry_equiv_pos_as_xyz
  1  'x, y, z'
loop_
 _atom_type_symbol
 _atom_type_oxidation_number
  K+  1.0
  Bi3+  3.0
  O2-  -2.0
loop_
 _atom_site_type_symbol
 _atom_site_label
 _atom_site_symmetry_multiplicity
 _atom_site_fract_x
 _atom_site_fract_y
 _atom_site_fract_z
 _atom_site_occupancy
  K+  K0  1  0.50000000  0.63133900  0.75000000  1
  K+  K1  1  0.50000000  0.36866100  0.25000000  1
  K+  K2  1  0.00000000  0.13133900  0.75000000  1
  K+  K3  1  0.00000000  0.86866100  0.25000000  1
  Bi3+  Bi4  1  0.50000000  0.90083400  0.25000000  1
  Bi3+  Bi5  1  0.50000000  0.09916600  0.75000000  1
  Bi3+  Bi6  1  0.00000000  0.40083400  0.25000000  1
  Bi3+  Bi7  1  0.00000000  0.59916600  0.75000000  1
  O2-  O8  1  0.69236950  0.06751850  0.22187500  1
  O2-  O9  1  0.30763050  0.06751850  0.27812500  1
  O2-  O10  1  0.69236950  0.93248150  0.72187500  1
  O2-  O11  1  0.30763050  0.93248150  0.77812500  1
  O2-  O12  1  0.19236950  0.56751850  0.22187500  1
  O2-  O13  1  0.80763050  0.56751850  0.27812500  1
  O2-  O14  1  0.19236950  0.43248150  0.72187500  1
  O2-  O15  1  0.80763050  0.43248150  0.77812500  1
