# generated using pymatgen
data_KBO2
_symmetry_space_group_name_H-M   'P 1'
_cell_length_a   12.88871028
_cell_length_b   12.88871028
_cell_length_c   7.52395653
_cell_angle_alpha   90.00000000
_cell_angle_beta   90.00000000
_cell_angle_gamma   120.00000000
_symmetry_Int_Tables_number   1
_chemical_formula_structural   KBO2
_chemical_formula_sum   'K18 B18 O36'
_cell_volume   1082.42006149
_cell_formula_units_Z   18
loop_
 _symmetry_equiv_pos_site_id
 _symmetry_equiv_pos_as_xyz
  1  'x, y, z'
loop_
 _atom_type_symbol
 _atom_type_oxidation_number
  K+  1.0
  B3+  3.0
  O2-  -2.0
loop_
 _atom_site_type_symbol
 _atom_site_label
 _atom_site_symmetry_multiplicity
 _atom_site_fract_x
 _atom_site_fract_y
 _atom_site_fract_z
 _atom_site_occupancy
  K+  K0  1  0.33333333  0.10671567  0.41666667  1
  K+  K1  1  0.22661767  0.89328433  0.08333333  1
  K+  K2  1  0.44004900  0.00000000  0.75000000  1
  K+  K3  1  0.33333333  0.22661767  0.91666667  1
  K+  K4  1  0.44004900  0.44004900  0.25000000  1
  K+  K5  1  0.22661767  0.33333333  0.58333333  1
  K+  K6  1  0.00000000  0.44004900  0.75000000  1
  K+  K7  1  0.89328433  0.22661767  0.41666667  1
  K+  K8  1  0.10671567  0.33333333  0.08333333  1
  K+  K9  1  0.00000000  0.55995100  0.25000000  1
  K+  K10  1  0.10671567  0.77338233  0.58333333  1
  K+  K11  1  0.89328433  0.66666667  0.91666667  1
  K+  K12  1  0.66666667  0.77338233  0.08333333  1
  K+  K13  1  0.55995100  0.55995100  0.75000000  1
  K+  K14  1  0.77338233  0.66666667  0.41666667  1
  K+  K15  1  0.66666667  0.89328433  0.58333333  1
  K+  K16  1  0.77338233  0.10671567  0.91666667  1
  K+  K17  1  0.55995100  0.00000000  0.25000000  1
  B3+  B18  1  0.33333333  0.55372767  0.91666667  1
  B3+  B19  1  0.33333333  0.77960567  0.41666667  1
  B3+  B20  1  0.55372767  0.22039433  0.08333333  1
  B3+  B21  1  0.11293900  0.00000000  0.75000000  1
  B3+  B22  1  0.11293900  0.11293900  0.25000000  1
  B3+  B23  1  0.55372767  0.33333333  0.58333333  1
  B3+  B24  1  0.00000000  0.88706100  0.25000000  1
  B3+  B25  1  0.00000000  0.11293900  0.75000000  1
  B3+  B26  1  0.22039433  0.55372767  0.41666667  1
  B3+  B27  1  0.77960567  0.33333333  0.08333333  1
  B3+  B28  1  0.77960567  0.44627233  0.58333333  1
  B3+  B29  1  0.22039433  0.66666667  0.91666667  1
  B3+  B30  1  0.66666667  0.22039433  0.58333333  1
  B3+  B31  1  0.66666667  0.44627233  0.08333333  1
  B3+  B32  1  0.88706100  0.88706100  0.75000000  1
  B3+  B33  1  0.44627233  0.66666667  0.41666667  1
  B3+  B34  1  0.44627233  0.77960567  0.91666667  1
  B3+  B35  1  0.88706100  0.00000000  0.25000000  1
  O2-  O36  1  0.10812500  0.00000000  0.25000000  1
  O2-  O37  1  0.55854167  0.22520833  0.58333333  1
  O2-  O38  1  0.33333333  0.55854167  0.41666667  1
  O2-  O39  1  0.33333333  0.77479167  0.91666667  1
  O2-  O40  1  0.55854167  0.33333333  0.08333333  1
  O2-  O41  1  0.10812500  0.10812500  0.75000000  1
  O2-  O42  1  0.45098367  0.33333333  0.58333333  1
  O2-  O43  1  0.21568300  0.21568300  0.25000000  1
  O2-  O44  1  0.33333333  0.45098367  0.91666667  1
  O2-  O45  1  0.21568300  0.00000000  0.75000000  1
  O2-  O46  1  0.45098367  0.11765033  0.08333333  1
  O2-  O47  1  0.33333333  0.88234967  0.41666667  1
  O2-  O48  1  0.77479167  0.33333333  0.58333333  1
  O2-  O49  1  0.22520833  0.55854167  0.91666667  1
  O2-  O50  1  0.00000000  0.89187500  0.75000000  1
  O2-  O51  1  0.00000000  0.10812500  0.25000000  1
  O2-  O52  1  0.22520833  0.66666667  0.41666667  1
  O2-  O53  1  0.77479167  0.44145833  0.08333333  1
  O2-  O54  1  0.11765033  0.66666667  0.91666667  1
  O2-  O55  1  0.88234967  0.54901633  0.58333333  1
  O2-  O56  1  0.00000000  0.78431700  0.25000000  1
  O2-  O57  1  0.88234967  0.33333333  0.08333333  1
  O2-  O58  1  0.11765033  0.45098367  0.41666667  1
  O2-  O59  1  0.00000000  0.21568300  0.75000000  1
  O2-  O60  1  0.44145833  0.66666667  0.91666667  1
  O2-  O61  1  0.89187500  0.89187500  0.25000000  1
  O2-  O62  1  0.66666667  0.22520833  0.08333333  1
  O2-  O63  1  0.66666667  0.44145833  0.58333333  1
  O2-  O64  1  0.89187500  0.00000000  0.75000000  1
  O2-  O65  1  0.44145833  0.77479167  0.41666667  1
  O2-  O66  1  0.78431700  0.00000000  0.25000000  1
  O2-  O67  1  0.54901633  0.88234967  0.91666667  1
  O2-  O68  1  0.66666667  0.11765033  0.58333333  1
  O2-  O69  1  0.54901633  0.66666667  0.41666667  1
  O2-  O70  1  0.78431700  0.78431700  0.75000000  1
  O2-  O71  1  0.66666667  0.54901633  0.08333333  1
