# generated using pymatgen
data_KLa(MoO4)2
_symmetry_space_group_name_H-M   'P 1'
_cell_length_a   11.07381400
_cell_length_b   10.76964400
_cell_length_c   8.03622943
_cell_angle_alpha   90.00000000
_cell_angle_beta   131.79593688
_cell_angle_gamma   90.00000000
_symmetry_Int_Tables_number   1
_chemical_formula_structural   KLa(MoO4)2
_chemical_formula_sum   'K4 La4 Mo8 O32'
_cell_volume   714.51623287
_cell_formula_units_Z   4
loop_
 _symmetry_equiv_pos_site_id
 _symmetry_equiv_pos_as_xyz
  1  'x, y, z'
loop_
 _atom_type_symbol
 _atom_type_oxidation_number
  K+  1.0
  La3+  3.0
  Mo6+  6.0
  O2-  -2.0
loop_
 _atom_site_type_symbol
 _atom_site_label
 _atom_site_symmetry_multiplicity
 _atom_site_fract_x
 _atom_site_fract_y
 _atom_site_fract_z
 _atom_site_occupancy
  K+  K0  1  0.00000000  0.79953400  0.25000000  1
  K+  K1  1  0.00000000  0.20046600  0.75000000  1
  K+  K2  1  0.50000000  0.29953400  0.25000000  1
  K+  K3  1  0.50000000  0.70046600  0.75000000  1
  La3+  La4  1  0.00000000  0.22942600  0.25000000  1
  La3+  La5  1  0.00000000  0.77057400  0.75000000  1
  La3+  La6  1  0.50000000  0.72942600  0.25000000  1
  La3+  La7  1  0.50000000  0.27057400  0.75000000  1
  Mo6+  Mo8  1  0.19314850  0.50250350  0.23905800  1
  Mo6+  Mo9  1  0.80685150  0.49749650  0.76094200  1
  Mo6+  Mo10  1  0.80685150  0.50250350  0.26094200  1
  Mo6+  Mo11  1  0.19314850  0.49749650  0.73905800  1
  Mo6+  Mo12  1  0.69314850  0.00250350  0.23905800  1
  Mo6+  Mo13  1  0.30685150  0.99749650  0.76094200  1
  Mo6+  Mo14  1  0.30685150  0.00250350  0.26094200  1
  Mo6+  Mo15  1  0.69314850  0.99749650  0.73905800  1
  O2-  O16  1  0.19034350  0.57592550  0.43462600  1
  O2-  O17  1  0.80965650  0.42407450  0.56537400  1
  O2-  O18  1  0.80965650  0.57592550  0.06537400  1
  O2-  O19  1  0.19034350  0.42407450  0.93462600  1
  O2-  O20  1  0.72967350  0.34606150  0.13346400  1
  O2-  O21  1  0.27032650  0.65393850  0.86653600  1
  O2-  O22  1  0.27032650  0.34606150  0.36653600  1
  O2-  O23  1  0.72967350  0.65393850  0.63346400  1
  O2-  O24  1  0.97529100  0.39466200  0.02401400  1
  O2-  O25  1  0.02470900  0.60533800  0.97598600  1
  O2-  O26  1  0.02470900  0.39466200  0.47598600  1
  O2-  O27  1  0.97529100  0.60533800  0.52401400  1
  O2-  O28  1  0.36852050  0.57537750  0.30878500  1
  O2-  O29  1  0.63147950  0.42462250  0.69121500  1
  O2-  O30  1  0.63147950  0.57537750  0.19121500  1
  O2-  O31  1  0.36852050  0.42462250  0.80878500  1
  O2-  O32  1  0.69034350  0.07592550  0.43462600  1
  O2-  O33  1  0.30965650  0.92407450  0.56537400  1
  O2-  O34  1  0.30965650  0.07592550  0.06537400  1
  O2-  O35  1  0.69034350  0.92407450  0.93462600  1
  O2-  O36  1  0.22967350  0.84606150  0.13346400  1
  O2-  O37  1  0.77032650  0.15393850  0.86653600  1
  O2-  O38  1  0.77032650  0.84606150  0.36653600  1
  O2-  O39  1  0.22967350  0.15393850  0.63346400  1
  O2-  O40  1  0.47529100  0.89466200  0.02401400  1
  O2-  O41  1  0.52470900  0.10533800  0.97598600  1
  O2-  O42  1  0.52470900  0.89466200  0.47598600  1
  O2-  O43  1  0.47529100  0.10533800  0.52401400  1
  O2-  O44  1  0.86852050  0.07537750  0.30878500  1
  O2-  O45  1  0.13147950  0.92462250  0.69121500  1
  O2-  O46  1  0.13147950  0.07537750  0.19121500  1
  O2-  O47  1  0.86852050  0.92462250  0.80878500  1
