# generated using pymatgen
data_KLiZn3O4
_symmetry_space_group_name_H-M   'P 1'
_cell_length_a   11.72131000
_cell_length_b   3.36388000
_cell_length_c   8.27705559
_cell_angle_alpha   90.00000000
_cell_angle_beta   134.42119899
_cell_angle_gamma   90.00000000
_symmetry_Int_Tables_number   1
_chemical_formula_structural   KLiZn3O4
_chemical_formula_sum   'K2 Li2 Zn6 O8'
_cell_volume   233.08843842
_cell_formula_units_Z   2
loop_
 _symmetry_equiv_pos_site_id
 _symmetry_equiv_pos_as_xyz
  1  'x, y, z'
loop_
 _atom_type_symbol
 _atom_type_oxidation_number
  K+  1.0
  Li+  1.0
  Zn2+  2.0
  O2-  -2.0
loop_
 _atom_site_type_symbol
 _atom_site_label
 _atom_site_symmetry_multiplicity
 _atom_site_fract_x
 _atom_site_fract_y
 _atom_site_fract_z
 _atom_site_occupancy
  K+  K0  1  0.00495600  0.00000000  0.00365100  1
  K+  K1  1  0.50495600  0.50000000  0.00365100  1
  Li+  Li2  1  0.31994700  0.50000000  0.18738400  1
  Li+  Li3  1  0.81994700  0.00000000  0.18738400  1
  Zn2+  Zn4  1  0.69690600  0.50000000  0.83882800  1
  Zn2+  Zn5  1  0.36991800  0.00000000  0.54070900  1
  Zn2+  Zn6  1  0.62269600  0.00000000  0.43895500  1
  Zn2+  Zn7  1  0.19690600  0.00000000  0.83882800  1
  Zn2+  Zn8  1  0.86991800  0.50000000  0.54070900  1
  Zn2+  Zn9  1  0.12269600  0.50000000  0.43895500  1
  O2-  O10  1  0.26514300  0.50000000  0.36819500  1
  O2-  O11  1  0.72667100  0.50000000  0.62983800  1
  O2-  O12  1  0.59551000  0.00000000  0.82329500  1
  O2-  O13  1  0.39825300  0.00000000  0.16914600  1
  O2-  O14  1  0.76514300  0.00000000  0.36819500  1
  O2-  O15  1  0.22667100  0.00000000  0.62983800  1
  O2-  O16  1  0.09551000  0.50000000  0.82329500  1
  O2-  O17  1  0.89825300  0.50000000  0.16914600  1
