# generated using pymatgen
data_KNaLaTaO5
_symmetry_space_group_name_H-M   'P 1'
_cell_length_a   5.84913800
_cell_length_b   5.84913800
_cell_length_c   8.36025100
_cell_angle_alpha   90.00000000
_cell_angle_beta   90.00000000
_cell_angle_gamma   90.00000000
_symmetry_Int_Tables_number   1
_chemical_formula_structural   KNaLaTaO5
_chemical_formula_sum   'K2 Na2 La2 Ta2 O10'
_cell_volume   286.02437958
_cell_formula_units_Z   2
loop_
 _symmetry_equiv_pos_site_id
 _symmetry_equiv_pos_as_xyz
  1  'x, y, z'
loop_
 _atom_type_symbol
 _atom_type_oxidation_number
  K+  1.0
  Na+  1.0
  La3+  3.0
  Ta5+  5.0
  O2-  -2.0
loop_
 _atom_site_type_symbol
 _atom_site_label
 _atom_site_symmetry_multiplicity
 _atom_site_fract_x
 _atom_site_fract_y
 _atom_site_fract_z
 _atom_site_occupancy
  K+  K0  1  0.50000000  0.50000000  0.00000000  1
  K+  K1  1  0.00000000  0.00000000  0.00000000  1
  Na+  Na2  1  0.50000000  0.00000000  0.24106700  1
  Na+  Na3  1  0.00000000  0.50000000  0.75893300  1
  La3+  La4  1  0.50000000  0.50000000  0.50000000  1
  La3+  La5  1  0.00000000  0.00000000  0.50000000  1
  Ta5+  Ta6  1  0.00000000  0.50000000  0.25399700  1
  Ta5+  Ta7  1  0.50000000  0.00000000  0.74600300  1
  O2-  O8  1  0.00000000  0.50000000  0.03192800  1
  O2-  O9  1  0.77157200  0.27157200  0.32469400  1
  O2-  O10  1  0.22842800  0.27157200  0.32469400  1
  O2-  O11  1  0.77157200  0.72842800  0.32469400  1
  O2-  O12  1  0.22842800  0.72842800  0.32469400  1
  O2-  O13  1  0.27157200  0.77157200  0.67530600  1
  O2-  O14  1  0.72842800  0.77157200  0.67530600  1
  O2-  O15  1  0.27157200  0.22842800  0.67530600  1
  O2-  O16  1  0.72842800  0.22842800  0.67530600  1
  O2-  O17  1  0.50000000  0.00000000  0.96807200  1
