# generated using pymatgen
data_KReO4
_symmetry_space_group_name_H-M   'P 1'
_cell_length_a   5.82923200
_cell_length_b   5.82923200
_cell_length_c   12.97861400
_cell_angle_alpha   90.00000000
_cell_angle_beta   90.00000000
_cell_angle_gamma   90.00000000
_symmetry_Int_Tables_number   1
_chemical_formula_structural   KReO4
_chemical_formula_sum   'K4 Re4 O16'
_cell_volume   441.01259911
_cell_formula_units_Z   4
loop_
 _symmetry_equiv_pos_site_id
 _symmetry_equiv_pos_as_xyz
  1  'x, y, z'
loop_
 _atom_type_symbol
 _atom_type_oxidation_number
  K+  1.0
  Re7+  7.0
  O2-  -2.0
loop_
 _atom_site_type_symbol
 _atom_site_label
 _atom_site_symmetry_multiplicity
 _atom_site_fract_x
 _atom_site_fract_y
 _atom_site_fract_z
 _atom_site_occupancy
  K+  K0  1  0.50000000  0.50000000  0.00000000  1
  K+  K1  1  0.50000000  0.00000000  0.25000000  1
  K+  K2  1  0.00000000  0.00000000  0.50000000  1
  K+  K3  1  0.00000000  0.50000000  0.75000000  1
  Re7+  Re4  1  0.00000000  0.50000000  0.25000000  1
  Re7+  Re5  1  0.00000000  0.00000000  0.00000000  1
  Re7+  Re6  1  0.50000000  0.00000000  0.75000000  1
  Re7+  Re7  1  0.50000000  0.50000000  0.50000000  1
  O2-  O8  1  0.38312650  0.28148650  0.42295250  1
  O2-  O9  1  0.78148650  0.61687350  0.17295250  1
  O2-  O10  1  0.21851350  0.38312650  0.17295250  1
  O2-  O11  1  0.61687350  0.71851350  0.42295250  1
  O2-  O12  1  0.88312650  0.28148650  0.32704750  1
  O2-  O13  1  0.78148650  0.11687350  0.07704750  1
  O2-  O14  1  0.21851350  0.88312650  0.07704750  1
  O2-  O15  1  0.11687350  0.71851350  0.32704750  1
  O2-  O16  1  0.88312650  0.78148650  0.92295250  1
  O2-  O17  1  0.28148650  0.11687350  0.67295250  1
  O2-  O18  1  0.71851350  0.88312650  0.67295250  1
  O2-  O19  1  0.11687350  0.21851350  0.92295250  1
  O2-  O20  1  0.38312650  0.78148650  0.82704750  1
  O2-  O21  1  0.28148650  0.61687350  0.57704750  1
  O2-  O22  1  0.71851350  0.38312650  0.57704750  1
  O2-  O23  1  0.61687350  0.21851350  0.82704750  1
