# generated using pymatgen
data_KSbWO6
_symmetry_space_group_name_H-M   'P 1'
_cell_length_a   7.28286000
_cell_length_b   7.40225800
_cell_length_c   10.44941600
_cell_angle_alpha   90.00000000
_cell_angle_beta   90.00000000
_cell_angle_gamma   90.00000000
_symmetry_Int_Tables_number   1
_chemical_formula_structural   KSbWO6
_chemical_formula_sum   'K4 Sb4 W4 O24'
_cell_volume   563.32392768
_cell_formula_units_Z   4
loop_
 _symmetry_equiv_pos_site_id
 _symmetry_equiv_pos_as_xyz
  1  'x, y, z'
loop_
 _atom_type_symbol
 _atom_type_oxidation_number
  K+  1.0
  Sb5+  5.0
  W6+  6.0
  O2-  -2.0
loop_
 _atom_site_type_symbol
 _atom_site_label
 _atom_site_symmetry_multiplicity
 _atom_site_fract_x
 _atom_site_fract_y
 _atom_site_fract_z
 _atom_site_occupancy
  K+  K0  1  0.25000000  0.55816600  0.84701200  1
  K+  K1  1  0.75000000  0.55816600  0.15298800  1
  K+  K2  1  0.75000000  0.05816600  0.34701200  1
  K+  K3  1  0.25000000  0.05816600  0.65298800  1
  Sb5+  Sb4  1  0.50000000  0.00122400  0.00000000  1
  Sb5+  Sb5  1  0.00000000  0.00122400  0.00000000  1
  Sb5+  Sb6  1  0.00000000  0.50122400  0.50000000  1
  Sb5+  Sb7  1  0.50000000  0.50122400  0.50000000  1
  W6+  W8  1  0.75000000  0.25306500  0.75130100  1
  W6+  W9  1  0.25000000  0.25306500  0.24869900  1
  W6+  W10  1  0.25000000  0.75306500  0.25130100  1
  W6+  W11  1  0.75000000  0.75306500  0.74869900  1
  O2-  O12  1  0.75000000  0.49707150  0.42441250  1
  O2-  O13  1  0.75000000  0.50044200  0.80897000  1
  O2-  O14  1  0.05958500  0.19242900  0.12806600  1
  O2-  O15  1  0.43975650  0.80658650  0.12669050  1
  O2-  O16  1  0.06024350  0.80658650  0.12669050  1
  O2-  O17  1  0.44041500  0.19242900  0.12806600  1
  O2-  O18  1  0.25000000  0.49707150  0.57558750  1
  O2-  O19  1  0.25000000  0.50044200  0.19103000  1
  O2-  O20  1  0.93975650  0.80658650  0.87330950  1
  O2-  O21  1  0.55958500  0.19242900  0.87193400  1
  O2-  O22  1  0.94041500  0.19242900  0.87193400  1
  O2-  O23  1  0.56024350  0.80658650  0.87330950  1
  O2-  O24  1  0.25000000  0.99707150  0.92441250  1
  O2-  O25  1  0.25000000  0.00044200  0.30897000  1
  O2-  O26  1  0.55958500  0.69242900  0.62806600  1
  O2-  O27  1  0.93975650  0.30658650  0.62669050  1
  O2-  O28  1  0.56024350  0.30658650  0.62669050  1
  O2-  O29  1  0.94041500  0.69242900  0.62806600  1
  O2-  O30  1  0.75000000  0.99707150  0.07558750  1
  O2-  O31  1  0.75000000  0.00044200  0.69103000  1
  O2-  O32  1  0.43975650  0.30658650  0.37330950  1
  O2-  O33  1  0.05958500  0.69242900  0.37193400  1
  O2-  O34  1  0.44041500  0.69242900  0.37193400  1
  O2-  O35  1  0.06024350  0.30658650  0.37330950  1
