# generated using pymatgen
data_KSc(WO4)2
_symmetry_space_group_name_H-M   'P 1'
_cell_length_a   11.02325400
_cell_length_b   10.23883200
_cell_length_c   7.36747453
_cell_angle_alpha   90.00000000
_cell_angle_beta   130.98648007
_cell_angle_gamma   90.00000000
_symmetry_Int_Tables_number   1
_chemical_formula_structural   KSc(WO4)2
_chemical_formula_sum   'K4 Sc4 W8 O32'
_cell_volume   627.69374406
_cell_formula_units_Z   4
loop_
 _symmetry_equiv_pos_site_id
 _symmetry_equiv_pos_as_xyz
  1  'x, y, z'
loop_
 _atom_type_symbol
 _atom_type_oxidation_number
  K+  1.0
  Sc3+  3.0
  W6+  6.0
  O2-  -2.0
loop_
 _atom_site_type_symbol
 _atom_site_label
 _atom_site_symmetry_multiplicity
 _atom_site_fract_x
 _atom_site_fract_y
 _atom_site_fract_z
 _atom_site_occupancy
  K+  K0  1  0.00000000  0.79217000  0.25000000  1
  K+  K1  1  0.00000000  0.20783000  0.75000000  1
  K+  K2  1  0.50000000  0.29217000  0.25000000  1
  K+  K3  1  0.50000000  0.70783000  0.75000000  1
  Sc3+  Sc4  1  0.00000000  0.22103500  0.25000000  1
  Sc3+  Sc5  1  0.00000000  0.77896500  0.75000000  1
  Sc3+  Sc6  1  0.50000000  0.72103500  0.25000000  1
  Sc3+  Sc7  1  0.50000000  0.27896500  0.75000000  1
  W6+  W8  1  0.19803600  0.49518200  0.20198400  1
  W6+  W9  1  0.80196400  0.50481800  0.79801600  1
  W6+  W10  1  0.80196400  0.49518200  0.29801600  1
  W6+  W11  1  0.19803600  0.50481800  0.70198400  1
  W6+  W12  1  0.69803600  0.99518200  0.20198400  1
  W6+  W13  1  0.30196400  0.00481800  0.79801600  1
  W6+  W14  1  0.30196400  0.99518200  0.29801600  1
  W6+  W15  1  0.69803600  0.00481800  0.70198400  1
  O2-  O16  1  0.18791550  0.56788150  0.43784700  1
  O2-  O17  1  0.81208450  0.43211850  0.56215300  1
  O2-  O18  1  0.81208450  0.56788150  0.06215300  1
  O2-  O19  1  0.18791550  0.43211850  0.93784700  1
  O2-  O20  1  0.68476950  0.35401250  0.10401800  1
  O2-  O21  1  0.31523050  0.64598750  0.89598200  1
  O2-  O22  1  0.31523050  0.35401250  0.39598200  1
  O2-  O23  1  0.68476950  0.64598750  0.60401800  1
  O2-  O24  1  0.99184300  0.38394900  0.05148700  1
  O2-  O25  1  0.00815700  0.61605100  0.94851300  1
  O2-  O26  1  0.00815700  0.38394900  0.44851300  1
  O2-  O27  1  0.99184300  0.61605100  0.55148700  1
  O2-  O28  1  0.35707350  0.61036050  0.29187200  1
  O2-  O29  1  0.64292650  0.38963950  0.70812800  1
  O2-  O30  1  0.64292650  0.61036050  0.20812800  1
  O2-  O31  1  0.35707350  0.38963950  0.79187200  1
  O2-  O32  1  0.68791550  0.06788150  0.43784700  1
  O2-  O33  1  0.31208450  0.93211850  0.56215300  1
  O2-  O34  1  0.31208450  0.06788150  0.06215300  1
  O2-  O35  1  0.68791550  0.93211850  0.93784700  1
  O2-  O36  1  0.18476950  0.85401250  0.10401800  1
  O2-  O37  1  0.81523050  0.14598750  0.89598200  1
  O2-  O38  1  0.81523050  0.85401250  0.39598200  1
  O2-  O39  1  0.18476950  0.14598750  0.60401800  1
  O2-  O40  1  0.49184300  0.88394900  0.05148700  1
  O2-  O41  1  0.50815700  0.11605100  0.94851300  1
  O2-  O42  1  0.50815700  0.88394900  0.44851300  1
  O2-  O43  1  0.49184300  0.11605100  0.55148700  1
  O2-  O44  1  0.85707350  0.11036050  0.29187200  1
  O2-  O45  1  0.14292650  0.88963950  0.70812800  1
  O2-  O46  1  0.14292650  0.11036050  0.20812800  1
  O2-  O47  1  0.85707350  0.88963950  0.79187200  1
