# generated using pymatgen
data_KTa(GeO3)3
_symmetry_space_group_name_H-M   'P 1'
_cell_length_a   7.08418733
_cell_length_b   7.08418733
_cell_length_c   10.29223200
_cell_angle_alpha   90.00000000
_cell_angle_beta   90.00000000
_cell_angle_gamma   120.00000000
_symmetry_Int_Tables_number   1
_chemical_formula_structural   KTa(GeO3)3
_chemical_formula_sum   'K2 Ta2 Ge6 O18'
_cell_volume   447.32201519
_cell_formula_units_Z   2
loop_
 _symmetry_equiv_pos_site_id
 _symmetry_equiv_pos_as_xyz
  1  'x, y, z'
loop_
 _atom_type_symbol
 _atom_type_oxidation_number
  K+  1.0
  Ta5+  5.0
  Ge4+  4.0
  O2-  -2.0
loop_
 _atom_site_type_symbol
 _atom_site_label
 _atom_site_symmetry_multiplicity
 _atom_site_fract_x
 _atom_site_fract_y
 _atom_site_fract_z
 _atom_site_occupancy
  K+  K0  1  0.66666667  0.33333333  0.00000000  1
  K+  K1  1  0.66666667  0.33333333  0.50000000  1
  Ta5+  Ta2  1  0.33333333  0.66666667  0.00000000  1
  Ta5+  Ta3  1  0.33333333  0.66666667  0.50000000  1
  Ge4+  Ge4  1  0.07279767  0.28970333  0.25000000  1
  Ge4+  Ge5  1  0.21690567  0.92720233  0.25000000  1
  Ge4+  Ge6  1  0.71029667  0.78309433  0.25000000  1
  Ge4+  Ge7  1  0.71029667  0.92720233  0.75000000  1
  Ge4+  Ge8  1  0.21690567  0.28970333  0.75000000  1
  Ge4+  Ge9  1  0.07279767  0.78309433  0.75000000  1
  O2-  O10  1  0.26609067  0.19944733  0.25000000  1
  O2-  O11  1  0.93335667  0.73390933  0.25000000  1
  O2-  O12  1  0.80055267  0.06664333  0.25000000  1
  O2-  O13  1  0.80055267  0.73390933  0.75000000  1
  O2-  O14  1  0.93335667  0.19944733  0.75000000  1
  O2-  O15  1  0.26609067  0.06664333  0.75000000  1
  O2-  O16  1  0.09685367  0.43988133  0.10976100  1
  O2-  O17  1  0.34302767  0.90314633  0.39023900  1
  O2-  O18  1  0.56011867  0.65697233  0.39023900  1
  O2-  O19  1  0.56011867  0.65697233  0.10976100  1
  O2-  O20  1  0.34302767  0.90314633  0.10976100  1
  O2-  O21  1  0.56011867  0.90314633  0.89023900  1
  O2-  O22  1  0.34302767  0.43988133  0.89023900  1
  O2-  O23  1  0.09685367  0.65697233  0.89023900  1
  O2-  O24  1  0.34302767  0.43988133  0.60976100  1
  O2-  O25  1  0.09685367  0.65697233  0.60976100  1
  O2-  O26  1  0.09685367  0.43988133  0.39023900  1
  O2-  O27  1  0.56011867  0.90314633  0.60976100  1
