# generated using pymatgen
data_KY(WO4)2
_symmetry_space_group_name_H-M   'P 1'
_cell_length_a   10.90999000
_cell_length_b   10.59332000
_cell_length_c   7.49059302
_cell_angle_alpha   90.00000000
_cell_angle_beta   130.28154851
_cell_angle_gamma   90.00000000
_symmetry_Int_Tables_number   1
_chemical_formula_structural   KY(WO4)2
_chemical_formula_sum   'K4 Y4 W8 O32'
_cell_volume   660.43020729
_cell_formula_units_Z   4
loop_
 _symmetry_equiv_pos_site_id
 _symmetry_equiv_pos_as_xyz
  1  'x, y, z'
loop_
 _atom_type_symbol
 _atom_type_oxidation_number
  K+  1.0
  Y3+  3.0
  W6+  6.0
  O2-  -2.0
loop_
 _atom_site_type_symbol
 _atom_site_label
 _atom_site_symmetry_multiplicity
 _atom_site_fract_x
 _atom_site_fract_y
 _atom_site_fract_z
 _atom_site_occupancy
  K+  K0  1  0.00000000  0.29441100  0.25000000  1
  K+  K1  1  0.00000000  0.70558900  0.75000000  1
  K+  K2  1  0.50000000  0.79441100  0.25000000  1
  K+  K3  1  0.50000000  0.20558900  0.75000000  1
  Y3+  Y4  1  0.00000000  0.72306300  0.25000000  1
  Y3+  Y5  1  0.00000000  0.27693700  0.75000000  1
  Y3+  Y6  1  0.50000000  0.22306300  0.25000000  1
  Y3+  Y7  1  0.50000000  0.77693700  0.75000000  1
  W6+  W8  1  0.69397200  0.50207800  0.72371200  1
  W6+  W9  1  0.30602800  0.50207800  0.77628800  1
  W6+  W10  1  0.30602800  0.49792200  0.27628800  1
  W6+  W11  1  0.69397200  0.49792200  0.22371200  1
  W6+  W12  1  0.19397200  0.00207800  0.72371200  1
  W6+  W13  1  0.80602800  0.00207800  0.77628800  1
  W6+  W14  1  0.80602800  0.99792200  0.27628800  1
  W6+  W15  1  0.19397200  0.99792200  0.22371200  1
  O2-  O16  1  0.68772900  0.56753500  0.44656300  1
  O2-  O17  1  0.31227100  0.56753500  0.05343700  1
  O2-  O18  1  0.31227100  0.43246500  0.55343700  1
  O2-  O19  1  0.68772900  0.43246500  0.94656300  1
  O2-  O20  1  0.21399000  0.65406100  0.62377700  1
  O2-  O21  1  0.78601000  0.65406100  0.87622300  1
  O2-  O22  1  0.78601000  0.34593900  0.37622300  1
  O2-  O23  1  0.21399000  0.34593900  0.12377700  1
  O2-  O24  1  0.12776800  0.58631400  0.18775700  1
  O2-  O25  1  0.87223200  0.58631400  0.31224300  1
  O2-  O26  1  0.87223200  0.41368600  0.81224300  1
  O2-  O27  1  0.12776800  0.41368600  0.68775700  1
  O2-  O28  1  0.01735150  0.88825050  0.46790700  1
  O2-  O29  1  0.98264850  0.11174950  0.53209300  1
  O2-  O30  1  0.98264850  0.88825050  0.03209300  1
  O2-  O31  1  0.01735150  0.11174950  0.96790700  1
  O2-  O32  1  0.18772900  0.06753500  0.44656300  1
  O2-  O33  1  0.81227100  0.06753500  0.05343700  1
  O2-  O34  1  0.81227100  0.93246500  0.55343700  1
  O2-  O35  1  0.18772900  0.93246500  0.94656300  1
  O2-  O36  1  0.71399000  0.15406100  0.62377700  1
  O2-  O37  1  0.28601000  0.15406100  0.87622300  1
  O2-  O38  1  0.28601000  0.84593900  0.37622300  1
  O2-  O39  1  0.71399000  0.84593900  0.12377700  1
  O2-  O40  1  0.62776800  0.08631400  0.18775700  1
  O2-  O41  1  0.37223200  0.08631400  0.31224300  1
  O2-  O42  1  0.37223200  0.91368600  0.81224300  1
  O2-  O43  1  0.62776800  0.91368600  0.68775700  1
  O2-  O44  1  0.51735150  0.38825050  0.46790700  1
  O2-  O45  1  0.48264850  0.61174950  0.53209300  1
  O2-  O46  1  0.48264850  0.38825050  0.03209300  1
  O2-  O47  1  0.51735150  0.61174950  0.96790700  1
