# generated using pymatgen
data_KZn4(SbO4)3
_symmetry_space_group_name_H-M   'P 1'
_cell_length_a   11.05577445
_cell_length_b   11.05577445
_cell_length_c   7.40266615
_cell_angle_alpha   90.00000000
_cell_angle_beta   90.00000000
_cell_angle_gamma   120.00000000
_symmetry_Int_Tables_number   1
_chemical_formula_structural   KZn4(SbO4)3
_chemical_formula_sum   'K3 Zn12 Sb9 O36'
_cell_volume   783.60488701
_cell_formula_units_Z   3
loop_
 _symmetry_equiv_pos_site_id
 _symmetry_equiv_pos_as_xyz
  1  'x, y, z'
loop_
 _atom_type_symbol
 _atom_type_oxidation_number
  K+  1.0
  Zn2+  2.0
  Sb5+  5.0
  O2-  -2.0
loop_
 _atom_site_type_symbol
 _atom_site_label
 _atom_site_symmetry_multiplicity
 _atom_site_fract_x
 _atom_site_fract_y
 _atom_site_fract_z
 _atom_site_occupancy
  K+  K0  1  0.00000000  0.00000000  0.49568100  1
  K+  K1  1  0.66666667  0.33333333  0.82901433  1
  K+  K2  1  0.33333333  0.66666667  0.16234767  1
  Zn2+  Zn3  1  0.63362800  0.75278100  0.39162300  1
  Zn2+  Zn4  1  0.11915300  0.36637200  0.39162300  1
  Zn2+  Zn5  1  0.24721900  0.88084700  0.39162300  1
  Zn2+  Zn6  1  0.00000000  0.00000000  0.98192700  1
  Zn2+  Zn7  1  0.30029467  0.08611433  0.72495633  1
  Zn2+  Zn8  1  0.78581967  0.69970533  0.72495633  1
  Zn2+  Zn9  1  0.91388567  0.21418033  0.72495633  1
  Zn2+  Zn10  1  0.66666667  0.33333333  0.31526033  1
  Zn2+  Zn11  1  0.96696133  0.41944767  0.05828967  1
  Zn2+  Zn12  1  0.45248633  0.03303867  0.05828967  1
  Zn2+  Zn13  1  0.58055233  0.54751367  0.05828967  1
  Zn2+  Zn14  1  0.33333333  0.66666667  0.64859367  1
  Sb5+  Sb15  1  0.76219000  0.11049900  0.30610500  1
  Sb5+  Sb16  1  0.88950100  0.65169100  0.30610500  1
  Sb5+  Sb17  1  0.34830900  0.23781000  0.30610500  1
  Sb5+  Sb18  1  0.42885667  0.44383233  0.63943833  1
  Sb5+  Sb19  1  0.55616767  0.98502433  0.63943833  1
  Sb5+  Sb20  1  0.01497567  0.57114333  0.63943833  1
  Sb5+  Sb21  1  0.09552333  0.77716567  0.97277167  1
  Sb5+  Sb22  1  0.22283433  0.31835767  0.97277167  1
  Sb5+  Sb23  1  0.68164233  0.90447667  0.97277167  1
  O2-  O24  1  0.05725633  0.18236167  0.83712967  1
  O2-  O25  1  0.81763833  0.87489467  0.83712967  1
  O2-  O26  1  0.79336767  0.72647333  0.45773833  1
  O2-  O27  1  0.27352667  0.06689433  0.45773833  1
  O2-  O28  1  0.12510533  0.94274367  0.83712967  1
  O2-  O29  1  0.93310567  0.20663233  0.45773833  1
  O2-  O30  1  0.51078000  0.35733200  0.47488500  1
  O2-  O31  1  0.84655200  0.48922000  0.47488500  1
  O2-  O32  1  0.64266800  0.15344800  0.47488500  1
  O2-  O33  1  0.25732200  0.31443300  0.47868900  1
  O2-  O34  1  0.05711100  0.74267800  0.47868900  1
  O2-  O35  1  0.68556700  0.94288900  0.47868900  1
  O2-  O36  1  0.72392300  0.51569500  0.17046300  1
  O2-  O37  1  0.48430500  0.20822800  0.17046300  1
  O2-  O38  1  0.46003433  0.05980667  0.79107167  1
  O2-  O39  1  0.94019333  0.40022767  0.79107167  1
  O2-  O40  1  0.79177200  0.27607700  0.17046300  1
  O2-  O41  1  0.59977233  0.53996567  0.79107167  1
  O2-  O42  1  0.17744667  0.69066533  0.80821833  1
  O2-  O43  1  0.51321867  0.82255333  0.80821833  1
  O2-  O44  1  0.30933467  0.48678133  0.80821833  1
  O2-  O45  1  0.92398867  0.64776633  0.81202233  1
  O2-  O46  1  0.72377767  0.07601133  0.81202233  1
  O2-  O47  1  0.35223367  0.27622233  0.81202233  1
  O2-  O48  1  0.39058967  0.84902833  0.50379633  1
  O2-  O49  1  0.15097167  0.54156133  0.50379633  1
  O2-  O50  1  0.12670100  0.39314000  0.12440500  1
  O2-  O51  1  0.60686000  0.73356100  0.12440500  1
  O2-  O52  1  0.45843867  0.60941033  0.50379633  1
  O2-  O53  1  0.26643900  0.87329900  0.12440500  1
  O2-  O54  1  0.84411333  0.02399867  0.14155167  1
  O2-  O55  1  0.17988533  0.15588667  0.14155167  1
  O2-  O56  1  0.97600133  0.82011467  0.14155167  1
  O2-  O57  1  0.59065533  0.98109967  0.14535567  1
  O2-  O58  1  0.39044433  0.40934467  0.14535567  1
  O2-  O59  1  0.01890033  0.60955567  0.14535567  1
