# generated using pymatgen
data_La(SbO3)3
_symmetry_space_group_name_H-M   'P 1'
_cell_length_a   6.63786400
_cell_length_b   8.99121000
_cell_length_c   11.91255100
_cell_angle_alpha   90.00000000
_cell_angle_beta   90.00000000
_cell_angle_gamma   90.00000000
_symmetry_Int_Tables_number   1
_chemical_formula_structural   La(SbO3)3
_chemical_formula_sum   'La4 Sb12 O36'
_cell_volume   710.96998136
_cell_formula_units_Z   4
loop_
 _symmetry_equiv_pos_site_id
 _symmetry_equiv_pos_as_xyz
  1  'x, y, z'
loop_
 _atom_type_symbol
 _atom_type_oxidation_number
  La3+  3.0
  Sb5+  5.0
  O2-  -2.0
loop_
 _atom_site_type_symbol
 _atom_site_label
 _atom_site_symmetry_multiplicity
 _atom_site_fract_x
 _atom_site_fract_y
 _atom_site_fract_z
 _atom_site_occupancy
  La3+  La0  1  0.50000000  0.74537400  0.75000000  1
  La3+  La1  1  0.50000000  0.25462600  0.25000000  1
  La3+  La2  1  0.00000000  0.24537400  0.75000000  1
  La3+  La3  1  0.00000000  0.75462600  0.25000000  1
  Sb5+  Sb4  1  0.50000000  0.37836300  0.90830000  1
  Sb5+  Sb5  1  0.50000000  0.62163700  0.40830000  1
  Sb5+  Sb6  1  0.50000000  0.62163700  0.09170000  1
  Sb5+  Sb7  1  0.50000000  0.37836300  0.59170000  1
  Sb5+  Sb8  1  0.50000000  0.00000000  0.00000000  1
  Sb5+  Sb9  1  0.50000000  0.00000000  0.50000000  1
  Sb5+  Sb10  1  0.00000000  0.87836300  0.90830000  1
  Sb5+  Sb11  1  0.00000000  0.12163700  0.40830000  1
  Sb5+  Sb12  1  0.00000000  0.12163700  0.09170000  1
  Sb5+  Sb13  1  0.00000000  0.87836300  0.59170000  1
  Sb5+  Sb14  1  0.00000000  0.50000000  0.00000000  1
  Sb5+  Sb15  1  0.00000000  0.50000000  0.50000000  1
  O2-  O16  1  0.50000000  0.55664300  0.25000000  1
  O2-  O17  1  0.50000000  0.44335700  0.75000000  1
  O2-  O18  1  0.50000000  0.39593700  0.07473500  1
  O2-  O19  1  0.50000000  0.60406300  0.57473500  1
  O2-  O20  1  0.50000000  0.60406300  0.92526500  1
  O2-  O21  1  0.50000000  0.39593700  0.42526500  1
  O2-  O22  1  0.50000000  0.16348400  0.88326100  1
  O2-  O23  1  0.50000000  0.83651600  0.38326100  1
  O2-  O24  1  0.30516000  0.88720300  0.59989700  1
  O2-  O25  1  0.69484000  0.11279700  0.09989700  1
  O2-  O26  1  0.30516000  0.11279700  0.40010300  1
  O2-  O27  1  0.69484000  0.88720300  0.90010300  1
  O2-  O28  1  0.69484000  0.11279700  0.40010300  1
  O2-  O29  1  0.30516000  0.88720300  0.90010300  1
  O2-  O30  1  0.69484000  0.88720300  0.59989700  1
  O2-  O31  1  0.30516000  0.11279700  0.09989700  1
  O2-  O32  1  0.50000000  0.16348400  0.61673900  1
  O2-  O33  1  0.50000000  0.83651600  0.11673900  1
  O2-  O34  1  0.00000000  0.05664300  0.25000000  1
  O2-  O35  1  0.00000000  0.94335700  0.75000000  1
  O2-  O36  1  0.00000000  0.89593700  0.07473500  1
  O2-  O37  1  0.00000000  0.10406300  0.57473500  1
  O2-  O38  1  0.00000000  0.10406300  0.92526500  1
  O2-  O39  1  0.00000000  0.89593700  0.42526500  1
  O2-  O40  1  0.00000000  0.66348400  0.88326100  1
  O2-  O41  1  0.00000000  0.33651600  0.38326100  1
  O2-  O42  1  0.80516000  0.38720300  0.59989700  1
  O2-  O43  1  0.19484000  0.61279700  0.09989700  1
  O2-  O44  1  0.80516000  0.61279700  0.40010300  1
  O2-  O45  1  0.19484000  0.38720300  0.90010300  1
  O2-  O46  1  0.19484000  0.61279700  0.40010300  1
  O2-  O47  1  0.80516000  0.38720300  0.90010300  1
  O2-  O48  1  0.19484000  0.38720300  0.59989700  1
  O2-  O49  1  0.80516000  0.61279700  0.09989700  1
  O2-  O50  1  0.00000000  0.66348400  0.61673900  1
  O2-  O51  1  0.00000000  0.33651600  0.11673900  1
