# generated using pymatgen
data_La2CrO6
_symmetry_space_group_name_H-M   'P 1'
_cell_length_a   14.54388600
_cell_length_b   4.43822200
_cell_length_c   8.51446965
_cell_angle_alpha   90.00000000
_cell_angle_beta   107.33171666
_cell_angle_gamma   90.00000000
_symmetry_Int_Tables_number   1
_chemical_formula_structural   La2CrO6
_chemical_formula_sum   'La8 Cr4 O24'
_cell_volume   524.64641939
_cell_formula_units_Z   4
loop_
 _symmetry_equiv_pos_site_id
 _symmetry_equiv_pos_as_xyz
  1  'x, y, z'
loop_
 _atom_type_symbol
 _atom_type_oxidation_number
  La3+  3.0
  Cr6+  6.0
  O2-  -2.0
loop_
 _atom_site_type_symbol
 _atom_site_label
 _atom_site_symmetry_multiplicity
 _atom_site_fract_x
 _atom_site_fract_y
 _atom_site_fract_z
 _atom_site_occupancy
  La3+  La0  1  0.32949800  0.99382200  0.91492600  1
  La3+  La1  1  0.17050200  0.49382200  0.58507400  1
  La3+  La2  1  0.32949800  0.00617800  0.41492600  1
  La3+  La3  1  0.17050200  0.50617800  0.08507400  1
  La3+  La4  1  0.82949800  0.49382200  0.91492600  1
  La3+  La5  1  0.67050200  0.99382200  0.58507400  1
  La3+  La6  1  0.82949800  0.50617800  0.41492600  1
  La3+  La7  1  0.67050200  0.00617800  0.08507400  1
  Cr6+  Cr8  1  0.00000000  0.04354900  0.75000000  1
  Cr6+  Cr9  1  0.00000000  0.95645100  0.25000000  1
  Cr6+  Cr10  1  0.50000000  0.54354900  0.75000000  1
  Cr6+  Cr11  1  0.50000000  0.45645100  0.25000000  1
  O2-  O12  1  0.24397300  0.02121700  0.12224500  1
  O2-  O13  1  0.49894850  0.23357650  0.09169800  1
  O2-  O14  1  0.40119900  0.33329500  0.70134900  1
  O2-  O15  1  0.09880100  0.16670500  0.29865100  1
  O2-  O16  1  0.25602700  0.52121700  0.37775500  1
  O2-  O17  1  0.00105150  0.73357650  0.40830200  1
  O2-  O18  1  0.24397300  0.97878300  0.62224500  1
  O2-  O19  1  0.00105150  0.26642350  0.90830200  1
  O2-  O20  1  0.25602700  0.47878300  0.87775500  1
  O2-  O21  1  0.49894850  0.76642350  0.59169800  1
  O2-  O22  1  0.40119900  0.66670500  0.20134900  1
  O2-  O23  1  0.09880100  0.83329500  0.79865100  1
  O2-  O24  1  0.74397300  0.52121700  0.12224500  1
  O2-  O25  1  0.99894850  0.73357650  0.09169800  1
  O2-  O26  1  0.90119900  0.83329500  0.70134900  1
  O2-  O27  1  0.59880100  0.66670500  0.29865100  1
  O2-  O28  1  0.75602700  0.02121700  0.37775500  1
  O2-  O29  1  0.50105150  0.23357650  0.40830200  1
  O2-  O30  1  0.74397300  0.47878300  0.62224500  1
  O2-  O31  1  0.50105150  0.76642350  0.90830200  1
  O2-  O32  1  0.75602700  0.97878300  0.87775500  1
  O2-  O33  1  0.99894850  0.26642350  0.59169800  1
  O2-  O34  1  0.90119900  0.16670500  0.20134900  1
  O2-  O35  1  0.59880100  0.33329500  0.79865100  1
