# generated using pymatgen
data_La2HgO4
_symmetry_space_group_name_H-M   'P 1'
_cell_length_a   14.19329400
_cell_length_b   3.94673800
_cell_length_c   10.47162329
_cell_angle_alpha   90.00000000
_cell_angle_beta   120.34507296
_cell_angle_gamma   90.00000000
_symmetry_Int_Tables_number   1
_chemical_formula_structural   La2HgO4
_chemical_formula_sum   'La8 Hg4 O16'
_cell_volume   506.22721574
_cell_formula_units_Z   4
loop_
 _symmetry_equiv_pos_site_id
 _symmetry_equiv_pos_as_xyz
  1  'x, y, z'
loop_
 _atom_type_symbol
 _atom_type_oxidation_number
  La3+  3.0
  Hg2+  2.0
  O2-  -2.0
loop_
 _atom_site_type_symbol
 _atom_site_label
 _atom_site_symmetry_multiplicity
 _atom_site_fract_x
 _atom_site_fract_y
 _atom_site_fract_z
 _atom_site_occupancy
  La3+  La0  1  0.88041900  0.50000000  0.54298600  1
  La3+  La1  1  0.84013700  0.00000000  0.20267100  1
  La3+  La2  1  0.15986300  0.00000000  0.79732900  1
  La3+  La3  1  0.11958100  0.50000000  0.45701400  1
  La3+  La4  1  0.38041900  0.00000000  0.54298600  1
  La3+  La5  1  0.34013700  0.50000000  0.20267100  1
  La3+  La6  1  0.65986300  0.50000000  0.79732900  1
  La3+  La7  1  0.61958100  0.00000000  0.45701400  1
  Hg2+  Hg8  1  0.61609500  0.50000000  0.16336000  1
  Hg2+  Hg9  1  0.38390500  0.50000000  0.83664000  1
  Hg2+  Hg10  1  0.11609500  0.00000000  0.16336000  1
  Hg2+  Hg11  1  0.88390500  0.00000000  0.83664000  1
  O2-  O12  1  0.77376600  0.00000000  0.39209700  1
  O2-  O13  1  0.70260700  0.50000000  0.05836700  1
  O2-  O14  1  0.96267900  0.00000000  0.72108200  1
  O2-  O15  1  0.91802100  0.50000000  0.34508600  1
  O2-  O16  1  0.08197900  0.50000000  0.65491400  1
  O2-  O17  1  0.03732100  0.00000000  0.27891800  1
  O2-  O18  1  0.29739300  0.50000000  0.94163300  1
  O2-  O19  1  0.22623400  0.00000000  0.60790300  1
  O2-  O20  1  0.27376600  0.50000000  0.39209700  1
  O2-  O21  1  0.20260700  0.00000000  0.05836700  1
  O2-  O22  1  0.46267900  0.50000000  0.72108200  1
  O2-  O23  1  0.41802100  0.00000000  0.34508600  1
  O2-  O24  1  0.58197900  0.00000000  0.65491400  1
  O2-  O25  1  0.53732100  0.50000000  0.27891800  1
  O2-  O26  1  0.79739300  0.00000000  0.94163300  1
  O2-  O27  1  0.72623400  0.50000000  0.60790300  1
