# generated using pymatgen
data_La2Pd2O5
_symmetry_space_group_name_H-M   'P 1'
_cell_length_a   6.75307200
_cell_length_b   6.75307200
_cell_length_c   5.66666400
_cell_angle_alpha   90.00000000
_cell_angle_beta   90.00000000
_cell_angle_gamma   90.00000000
_symmetry_Int_Tables_number   1
_chemical_formula_structural   La2Pd2O5
_chemical_formula_sum   'La4 Pd4 O10'
_cell_volume   258.42243987
_cell_formula_units_Z   2
loop_
 _symmetry_equiv_pos_site_id
 _symmetry_equiv_pos_as_xyz
  1  'x, y, z'
loop_
 _atom_type_symbol
 _atom_type_oxidation_number
  La3+  3.0
  Pd2+  2.0
  O2-  -2.0
loop_
 _atom_site_type_symbol
 _atom_site_label
 _atom_site_symmetry_multiplicity
 _atom_site_fract_x
 _atom_site_fract_y
 _atom_site_fract_z
 _atom_site_occupancy
  La3+  La0  1  0.10759200  0.73803200  0.50000000  1
  La3+  La1  1  0.73803200  0.89240800  0.00000000  1
  La3+  La2  1  0.89240800  0.26196800  0.50000000  1
  La3+  La3  1  0.26196800  0.10759200  0.00000000  1
  Pd2+  Pd4  1  0.30899000  0.59459800  0.00000000  1
  Pd2+  Pd5  1  0.40540200  0.30899000  0.50000000  1
  Pd2+  Pd6  1  0.69101000  0.40540200  0.00000000  1
  Pd2+  Pd7  1  0.59459800  0.69101000  0.50000000  1
  O2-  O8  1  0.80070800  0.59662300  0.25743800  1
  O2-  O9  1  0.40337700  0.80070800  0.75743800  1
  O2-  O10  1  0.19929200  0.40337700  0.74256200  1
  O2-  O11  1  0.19929200  0.40337700  0.25743800  1
  O2-  O12  1  0.00000000  0.00000000  0.75000000  1
  O2-  O13  1  0.59662300  0.19929200  0.75743800  1
  O2-  O14  1  0.59662300  0.19929200  0.24256200  1
  O2-  O15  1  0.80070800  0.59662300  0.74256200  1
  O2-  O16  1  0.00000000  0.00000000  0.25000000  1
  O2-  O17  1  0.40337700  0.80070800  0.24256200  1
