# generated using pymatgen
data_La3BWO9
_symmetry_space_group_name_H-M   'P 1'
_cell_length_a   8.92576004
_cell_length_b   8.92576004
_cell_length_c   5.68089100
_cell_angle_alpha   90.00000000
_cell_angle_beta   90.00000000
_cell_angle_gamma   120.00000000
_symmetry_Int_Tables_number   1
_chemical_formula_structural   La3BWO9
_chemical_formula_sum   'La6 B2 W2 O18'
_cell_volume   391.95616734
_cell_formula_units_Z   2
loop_
 _symmetry_equiv_pos_site_id
 _symmetry_equiv_pos_as_xyz
  1  'x, y, z'
loop_
 _atom_type_symbol
 _atom_type_oxidation_number
  La3+  3.0
  B3+  3.0
  W6+  6.0
  O2-  -2.0
loop_
 _atom_site_type_symbol
 _atom_site_label
 _atom_site_symmetry_multiplicity
 _atom_site_fract_x
 _atom_site_fract_y
 _atom_site_fract_z
 _atom_site_occupancy
  La3+  La0  1  0.27679200  0.35915100  0.71699400  1
  La3+  La1  1  0.64084900  0.91764100  0.71699400  1
  La3+  La2  1  0.35915100  0.08235900  0.21699400  1
  La3+  La3  1  0.72320800  0.64084900  0.21699400  1
  La3+  La4  1  0.08235900  0.72320800  0.71699400  1
  La3+  La5  1  0.91764100  0.27679200  0.21699400  1
  B3+  B6  1  0.00000000  0.00000000  0.38303700  1
  B3+  B7  1  0.00000000  0.00000000  0.88303700  1
  W6+  W8  1  0.33333333  0.66666667  0.25416400  1
  W6+  W9  1  0.66666667  0.33333333  0.75416400  1
  O2-  O10  1  0.86091200  0.47737300  0.97313400  1
  O2-  O11  1  0.61646100  0.13908800  0.97313400  1
  O2-  O12  1  0.17378400  0.04870500  0.87613900  1
  O2-  O13  1  0.72881500  0.20025700  0.54919900  1
  O2-  O14  1  0.04870500  0.87492100  0.37613900  1
  O2-  O15  1  0.82621600  0.95129500  0.37613900  1
  O2-  O16  1  0.79974300  0.52855800  0.54919900  1
  O2-  O17  1  0.47144200  0.27118500  0.54919900  1
  O2-  O18  1  0.47737300  0.61646100  0.47313400  1
  O2-  O19  1  0.12507900  0.17378400  0.37613900  1
  O2-  O20  1  0.20025700  0.47144200  0.04919900  1
  O2-  O21  1  0.87492100  0.82621600  0.87613900  1
  O2-  O22  1  0.13908800  0.52262700  0.47313400  1
  O2-  O23  1  0.95129500  0.12507900  0.87613900  1
  O2-  O24  1  0.52855800  0.72881500  0.04919900  1
  O2-  O25  1  0.27118500  0.79974300  0.04919900  1
  O2-  O26  1  0.38353900  0.86091200  0.47313400  1
  O2-  O27  1  0.52262700  0.38353900  0.97313400  1
