# generated using pymatgen
data_La3HfGa5O14
_symmetry_space_group_name_H-M   'P 1'
_cell_length_a   8.35313156
_cell_length_b   8.35313156
_cell_length_c   5.20430700
_cell_angle_alpha   90.00000000
_cell_angle_beta   90.00000000
_cell_angle_gamma   120.00000000
_symmetry_Int_Tables_number   1
_chemical_formula_structural   La3HfGa5O14
_chemical_formula_sum   'La3 Hf1 Ga5 O14'
_cell_volume   314.47938518
_cell_formula_units_Z   1
loop_
 _symmetry_equiv_pos_site_id
 _symmetry_equiv_pos_as_xyz
  1  'x, y, z'
loop_
 _atom_type_symbol
 _atom_type_oxidation_number
  La3+  3.0
  Hf4+  4.0
  Ga3+  3.0
  O2-  -2.0
loop_
 _atom_site_type_symbol
 _atom_site_label
 _atom_site_symmetry_multiplicity
 _atom_site_fract_x
 _atom_site_fract_y
 _atom_site_fract_z
 _atom_site_occupancy
  La3+  La0  1  0.57405000  0.00000000  0.00000000  1
  La3+  La1  1  0.00000000  0.57405000  0.00000000  1
  La3+  La2  1  0.42595000  0.42595000  0.00000000  1
  Hf4+  Hf3  1  0.00000000  0.00000000  0.00000000  1
  Ga3+  Ga4  1  0.33333333  0.66666667  0.52971800  1
  Ga3+  Ga5  1  0.66666667  0.33333333  0.47028200  1
  Ga3+  Ga6  1  0.24414200  0.00000000  0.50000000  1
  Ga3+  Ga7  1  0.00000000  0.24414200  0.50000000  1
  Ga3+  Ga8  1  0.75585800  0.75585800  0.50000000  1
  O2-  O9  1  0.14735800  0.22678200  0.24254100  1
  O2-  O10  1  0.77321800  0.92057600  0.24254100  1
  O2-  O11  1  0.22678200  0.14735800  0.75745900  1
  O2-  O12  1  0.07942400  0.85264200  0.24254100  1
  O2-  O13  1  0.92057600  0.77321800  0.75745900  1
  O2-  O14  1  0.85264200  0.07942400  0.75745900  1
  O2-  O15  1  0.33333333  0.66666667  0.18021700  1
  O2-  O16  1  0.66666667  0.33333333  0.81978300  1
  O2-  O17  1  0.45763200  0.14653000  0.30164900  1
  O2-  O18  1  0.85347000  0.31110200  0.30164900  1
  O2-  O19  1  0.14653000  0.45763200  0.69835100  1
  O2-  O20  1  0.68889800  0.54236800  0.30164900  1
  O2-  O21  1  0.31110200  0.85347000  0.69835100  1
  O2-  O22  1  0.54236800  0.68889800  0.69835100  1
