# generated using pymatgen
data_La3SbO3
_symmetry_space_group_name_H-M   'P 1'
_cell_length_a   13.92186600
_cell_length_b   4.11897200
_cell_length_c   12.38857184
_cell_angle_alpha   90.00000000
_cell_angle_beta   118.53595737
_cell_angle_gamma   90.00000000
_symmetry_Int_Tables_number   1
_chemical_formula_structural   La3SbO3
_chemical_formula_sum   'La12 Sb4 O12'
_cell_volume   624.10540420
_cell_formula_units_Z   4
loop_
 _symmetry_equiv_pos_site_id
 _symmetry_equiv_pos_as_xyz
  1  'x, y, z'
loop_
 _atom_type_symbol
 _atom_type_oxidation_number
  La3+  3.0
  Sb3-  -3.0
  O2-  -2.0
loop_
 _atom_site_type_symbol
 _atom_site_label
 _atom_site_symmetry_multiplicity
 _atom_site_fract_x
 _atom_site_fract_y
 _atom_site_fract_z
 _atom_site_occupancy
  La3+  La0  1  0.11961500  0.50000000  0.44463600  1
  La3+  La1  1  0.88038500  0.50000000  0.55536400  1
  La3+  La2  1  0.12788900  0.50000000  0.89904200  1
  La3+  La3  1  0.87211100  0.50000000  0.10095800  1
  La3+  La4  1  0.65451050  0.50000000  0.20673400  1
  La3+  La5  1  0.34548950  0.50000000  0.79326600  1
  La3+  La6  1  0.61961500  0.00000000  0.44463600  1
  La3+  La7  1  0.38038500  0.00000000  0.55536400  1
  La3+  La8  1  0.62788900  0.00000000  0.89904200  1
  La3+  La9  1  0.37211100  0.00000000  0.10095800  1
  La3+  La10  1  0.15451050  0.00000000  0.20673400  1
  La3+  La11  1  0.84548950  0.00000000  0.79326600  1
  Sb3-  Sb12  1  0.12224200  0.00000000  0.68207900  1
  Sb3-  Sb13  1  0.87775800  0.00000000  0.31792100  1
  Sb3-  Sb14  1  0.62224200  0.50000000  0.68207900  1
  Sb3-  Sb15  1  0.37775800  0.50000000  0.31792100  1
  O2-  O16  1  0.18957650  0.00000000  0.41068500  1
  O2-  O17  1  0.81042350  0.00000000  0.58931500  1
  O2-  O18  1  0.93628250  0.50000000  0.79856300  1
  O2-  O19  1  0.06371750  0.50000000  0.20143700  1
  O2-  O20  1  0.66176500  0.50000000  0.01262300  1
  O2-  O21  1  0.33823500  0.50000000  0.98737700  1
  O2-  O22  1  0.68957650  0.50000000  0.41068500  1
  O2-  O23  1  0.31042350  0.50000000  0.58931500  1
  O2-  O24  1  0.43628250  0.00000000  0.79856300  1
  O2-  O25  1  0.56371750  0.00000000  0.20143700  1
  O2-  O26  1  0.16176500  0.00000000  0.01262300  1
  O2-  O27  1  0.83823500  0.00000000  0.98737700  1
