# generated using pymatgen
data_La3TiGa5O14
_symmetry_space_group_name_H-M   'P 1'
_cell_length_a   8.29361724
_cell_length_b   8.29361724
_cell_length_c   5.15311800
_cell_angle_alpha   90.00000000
_cell_angle_beta   90.00000000
_cell_angle_gamma   120.00000000
_symmetry_Int_Tables_number   1
_chemical_formula_structural   La3TiGa5O14
_chemical_formula_sum   'La3 Ti1 Ga5 O14'
_cell_volume   306.96488369
_cell_formula_units_Z   1
loop_
 _symmetry_equiv_pos_site_id
 _symmetry_equiv_pos_as_xyz
  1  'x, y, z'
loop_
 _atom_type_symbol
 _atom_type_oxidation_number
  La3+  3.0
  Ti4+  4.0
  Ga3+  3.0
  O2-  -2.0
loop_
 _atom_site_type_symbol
 _atom_site_label
 _atom_site_symmetry_multiplicity
 _atom_site_fract_x
 _atom_site_fract_y
 _atom_site_fract_z
 _atom_site_occupancy
  La3+  La0  1  0.57630100  0.00000000  0.00000000  1
  La3+  La1  1  0.00000000  0.57630100  0.00000000  1
  La3+  La2  1  0.42369900  0.42369900  0.00000000  1
  Ti4+  Ti3  1  0.00000000  0.00000000  0.00000000  1
  Ga3+  Ga4  1  0.33333333  0.66666667  0.52971300  1
  Ga3+  Ga5  1  0.66666667  0.33333333  0.47028700  1
  Ga3+  Ga6  1  0.23893800  0.00000000  0.50000000  1
  Ga3+  Ga7  1  0.00000000  0.23893800  0.50000000  1
  Ga3+  Ga8  1  0.76106200  0.76106200  0.50000000  1
  O2-  O9  1  0.14206200  0.21765000  0.23417700  1
  O2-  O10  1  0.78235000  0.92441200  0.23417700  1
  O2-  O11  1  0.21765000  0.14206200  0.76582300  1
  O2-  O12  1  0.07558800  0.85793800  0.23417700  1
  O2-  O13  1  0.92441200  0.78235000  0.76582300  1
  O2-  O14  1  0.85793800  0.07558800  0.76582300  1
  O2-  O15  1  0.33333333  0.66666667  0.17755300  1
  O2-  O16  1  0.66666667  0.33333333  0.82244700  1
  O2-  O17  1  0.45588800  0.14691500  0.30263600  1
  O2-  O18  1  0.85308500  0.30897300  0.30263600  1
  O2-  O19  1  0.14691500  0.45588800  0.69736400  1
  O2-  O20  1  0.69102700  0.54411200  0.30263600  1
  O2-  O21  1  0.30897300  0.85308500  0.69736400  1
  O2-  O22  1  0.54411200  0.69102700  0.69736400  1
