# generated using pymatgen
data_La6WO12
_symmetry_space_group_name_H-M   'P 1'
_cell_length_a   10.39229573
_cell_length_b   10.39229573
_cell_length_c   9.99467758
_cell_angle_alpha   90.00000000
_cell_angle_beta   90.00000000
_cell_angle_gamma   120.00000000
_symmetry_Int_Tables_number   1
_chemical_formula_structural   La6WO12
_chemical_formula_sum   'La18 W3 O36'
_cell_volume   934.80798741
_cell_formula_units_Z   3
loop_
 _symmetry_equiv_pos_site_id
 _symmetry_equiv_pos_as_xyz
  1  'x, y, z'
loop_
 _atom_type_symbol
 _atom_type_oxidation_number
  La3+  3.0
  W6+  6.0
  O2-  -2.0
loop_
 _atom_site_type_symbol
 _atom_site_label
 _atom_site_symmetry_multiplicity
 _atom_site_fract_x
 _atom_site_fract_y
 _atom_site_fract_z
 _atom_site_occupancy
  La3+  La0  1  0.95374767  0.20883633  0.35180833  1
  La3+  La1  1  0.20883633  0.25508867  0.64819167  1
  La3+  La2  1  0.74491133  0.95374767  0.64819167  1
  La3+  La3  1  0.25508867  0.04625233  0.35180833  1
  La3+  La4  1  0.79116367  0.74491133  0.35180833  1
  La3+  La5  1  0.04625233  0.79116367  0.64819167  1
  La3+  La6  1  0.62041433  0.54216967  0.68514167  1
  La3+  La7  1  0.87550300  0.58842200  0.98152500  1
  La3+  La8  1  0.41157800  0.28708100  0.98152500  1
  La3+  La9  1  0.92175533  0.37958567  0.68514167  1
  La3+  La10  1  0.45783033  0.07824467  0.68514167  1
  La3+  La11  1  0.71291900  0.12449700  0.98152500  1
  La3+  La12  1  0.28708100  0.87550300  0.01847500  1
  La3+  La13  1  0.54216967  0.92175533  0.31485833  1
  La3+  La14  1  0.07824467  0.62041433  0.31485833  1
  La3+  La15  1  0.58842200  0.71291900  0.01847500  1
  La3+  La16  1  0.12449700  0.41157800  0.01847500  1
  La3+  La17  1  0.37958567  0.45783033  0.31485833  1
  W6+  W18  1  0.00000000  0.00000000  0.00000000  1
  W6+  W19  1  0.66666667  0.33333333  0.33333333  1
  W6+  W20  1  0.33333333  0.66666667  0.66666667  1
  O2-  O21  1  0.84332600  0.37208800  0.44083600  1
  O2-  O22  1  0.37208800  0.52876200  0.55916400  1
  O2-  O23  1  0.96405467  0.19067733  0.59664633  1
  O2-  O24  1  0.19067733  0.22662267  0.40335367  1
  O2-  O25  1  0.47123800  0.84332600  0.55916400  1
  O2-  O26  1  0.77337733  0.96405467  0.40335367  1
  O2-  O27  1  0.22662267  0.03594533  0.59664633  1
  O2-  O28  1  0.52876200  0.15667400  0.44083600  1
  O2-  O29  1  0.80932267  0.77337733  0.59664633  1
  O2-  O30  1  0.03594533  0.80932267  0.40335367  1
  O2-  O31  1  0.62791200  0.47123800  0.44083600  1
  O2-  O32  1  0.15667400  0.62791200  0.55916400  1
  O2-  O33  1  0.50999267  0.70542133  0.77416933  1
  O2-  O34  1  0.03875467  0.86209533  0.89249733  1
  O2-  O35  1  0.63072133  0.52401067  0.92997967  1
  O2-  O36  1  0.85734400  0.55995600  0.73668700  1
  O2-  O37  1  0.13790467  0.17665933  0.89249733  1
  O2-  O38  1  0.44004400  0.29738800  0.73668700  1
  O2-  O39  1  0.89328933  0.36927867  0.92997967  1
  O2-  O40  1  0.19542867  0.49000733  0.77416933  1
  O2-  O41  1  0.47598933  0.10671067  0.92997967  1
  O2-  O42  1  0.70261200  0.14265600  0.73668700  1
  O2-  O43  1  0.29457867  0.80457133  0.77416933  1
  O2-  O44  1  0.82334067  0.96124533  0.89249733  1
  O2-  O45  1  0.17665933  0.03875467  0.10750267  1
  O2-  O46  1  0.70542133  0.19542867  0.22583067  1
  O2-  O47  1  0.29738800  0.85734400  0.26331300  1
  O2-  O48  1  0.52401067  0.89328933  0.07002033  1
  O2-  O49  1  0.80457133  0.50999267  0.22583067  1
  O2-  O50  1  0.10671067  0.63072133  0.07002033  1
  O2-  O51  1  0.55995600  0.70261200  0.26331300  1
  O2-  O52  1  0.86209533  0.82334067  0.10750267  1
  O2-  O53  1  0.14265600  0.44004400  0.26331300  1
  O2-  O54  1  0.36927867  0.47598933  0.07002033  1
  O2-  O55  1  0.96124533  0.13790467  0.10750267  1
  O2-  O56  1  0.49000733  0.29457867  0.22583067  1
