# generated using pymatgen
data_LaAg(MoO4)2
_symmetry_space_group_name_H-M   'P 1'
_cell_length_a   5.45058000
_cell_length_b   5.45058000
_cell_length_c   11.66735000
_cell_angle_alpha   90.00000000
_cell_angle_beta   90.00000000
_cell_angle_gamma   90.00000000
_symmetry_Int_Tables_number   1
_chemical_formula_structural   LaAg(MoO4)2
_chemical_formula_sum   'La2 Ag2 Mo4 O16'
_cell_volume   346.62322829
_cell_formula_units_Z   2
loop_
 _symmetry_equiv_pos_site_id
 _symmetry_equiv_pos_as_xyz
  1  'x, y, z'
loop_
 _atom_type_symbol
 _atom_type_oxidation_number
  La3+  3.0
  Ag+  1.0
  Mo6+  6.0
  O2-  -2.0
loop_
 _atom_site_type_symbol
 _atom_site_label
 _atom_site_symmetry_multiplicity
 _atom_site_fract_x
 _atom_site_fract_y
 _atom_site_fract_z
 _atom_site_occupancy
  La3+  La0  1  0.50000000  0.50000000  0.00000000  1
  La3+  La1  1  0.00000000  0.00000000  0.50000000  1
  Ag+  Ag2  1  0.00000000  0.50000000  0.25000000  1
  Ag+  Ag3  1  0.50000000  0.00000000  0.75000000  1
  Mo6+  Mo4  1  0.50000000  0.00000000  0.25000000  1
  Mo6+  Mo5  1  0.00000000  0.00000000  0.00000000  1
  Mo6+  Mo6  1  0.00000000  0.50000000  0.75000000  1
  Mo6+  Mo7  1  0.50000000  0.50000000  0.50000000  1
  O2-  O8  1  0.35898000  0.23397600  0.16178600  1
  O2-  O9  1  0.64102000  0.76602400  0.16178600  1
  O2-  O10  1  0.73789550  0.65177750  0.41784650  1
  O2-  O11  1  0.26210450  0.34822250  0.41784650  1
  O2-  O12  1  0.15177750  0.76210450  0.08215350  1
  O2-  O13  1  0.84822250  0.23789550  0.08215350  1
  O2-  O14  1  0.26602400  0.85898000  0.33821400  1
  O2-  O15  1  0.73397600  0.14102000  0.33821400  1
  O2-  O16  1  0.85898000  0.73397600  0.66178600  1
  O2-  O17  1  0.14102000  0.26602400  0.66178600  1
  O2-  O18  1  0.23789550  0.15177750  0.91784650  1
  O2-  O19  1  0.76210450  0.84822250  0.91784650  1
  O2-  O20  1  0.65177750  0.26210450  0.58215350  1
  O2-  O21  1  0.34822250  0.73789550  0.58215350  1
  O2-  O22  1  0.76602400  0.35898000  0.83821400  1
  O2-  O23  1  0.23397600  0.64102000  0.83821400  1
