# generated using pymatgen
data_LaAsO4
_symmetry_space_group_name_H-M   'P 1'
_cell_length_a   7.46681400
_cell_length_b   7.46681400
_cell_length_c   6.63005400
_cell_angle_alpha   90.00000000
_cell_angle_beta   90.00000000
_cell_angle_gamma   90.00000000
_symmetry_Int_Tables_number   1
_chemical_formula_structural   LaAsO4
_chemical_formula_sum   'La4 As4 O16'
_cell_volume   369.64746467
_cell_formula_units_Z   4
loop_
 _symmetry_equiv_pos_site_id
 _symmetry_equiv_pos_as_xyz
  1  'x, y, z'
loop_
 _atom_type_symbol
 _atom_type_oxidation_number
  La3+  3.0
  As5+  5.0
  O2-  -2.0
loop_
 _atom_site_type_symbol
 _atom_site_label
 _atom_site_symmetry_multiplicity
 _atom_site_fract_x
 _atom_site_fract_y
 _atom_site_fract_z
 _atom_site_occupancy
  La3+  La0  1  0.50000000  0.00000000  0.25000000  1
  La3+  La1  1  0.50000000  0.50000000  0.50000000  1
  La3+  La2  1  0.00000000  0.50000000  0.75000000  1
  La3+  La3  1  0.00000000  0.00000000  0.00000000  1
  As5+  As4  1  0.50000000  0.00000000  0.75000000  1
  As5+  As5  1  0.00000000  0.00000000  0.50000000  1
  As5+  As6  1  0.00000000  0.50000000  0.25000000  1
  As5+  As7  1  0.50000000  0.50000000  0.00000000  1
  O2-  O8  1  0.50000000  0.17767850  0.58426650  1
  O2-  O9  1  0.67767850  0.00000000  0.91573350  1
  O2-  O10  1  0.82232150  0.00000000  0.33426650  1
  O2-  O11  1  0.82232150  0.50000000  0.41573350  1
  O2-  O12  1  0.00000000  0.17767850  0.66573350  1
  O2-  O13  1  0.00000000  0.82232150  0.66573350  1
  O2-  O14  1  0.00000000  0.32232150  0.08426650  1
  O2-  O15  1  0.17767850  0.00000000  0.33426650  1
  O2-  O16  1  0.00000000  0.67767850  0.08426650  1
  O2-  O17  1  0.17767850  0.50000000  0.41573350  1
  O2-  O18  1  0.32232150  0.50000000  0.83426650  1
  O2-  O19  1  0.32232150  0.00000000  0.91573350  1
  O2-  O20  1  0.50000000  0.67767850  0.16573350  1
  O2-  O21  1  0.50000000  0.32232150  0.16573350  1
  O2-  O22  1  0.50000000  0.82232150  0.58426650  1
  O2-  O23  1  0.67767850  0.50000000  0.83426650  1
