# generated using pymatgen
data_LaAsO3
_symmetry_space_group_name_H-M   'P 1'
_cell_length_a   4.45467700
_cell_length_b   5.37801200
_cell_length_c   6.28404804
_cell_angle_alpha   90.00000000
_cell_angle_beta   105.68615195
_cell_angle_gamma   90.00000000
_symmetry_Int_Tables_number   1
_chemical_formula_structural   LaAsO3
_chemical_formula_sum   'La2 As2 O6'
_cell_volume   144.94199098
_cell_formula_units_Z   2
loop_
 _symmetry_equiv_pos_site_id
 _symmetry_equiv_pos_as_xyz
  1  'x, y, z'
loop_
 _atom_type_symbol
 _atom_type_oxidation_number
  La3+  3.0
  As3+  3.0
  O2-  -2.0
loop_
 _atom_site_type_symbol
 _atom_site_label
 _atom_site_symmetry_multiplicity
 _atom_site_fract_x
 _atom_site_fract_y
 _atom_site_fract_z
 _atom_site_occupancy
  La3+  La0  1  0.66302000  0.25000000  0.29954100  1
  La3+  La1  1  0.33698000  0.75000000  0.70045900  1
  As3+  As2  1  0.92221000  0.25000000  0.85531100  1
  As3+  As3  1  0.07779000  0.75000000  0.14468900  1
  O2-  O4  1  0.33316100  0.25000000  0.88151900  1
  O2-  O5  1  0.66683900  0.75000000  0.11848100  1
  O2-  O6  1  0.80626000  0.49870900  0.65671700  1
  O2-  O7  1  0.19374000  0.99870900  0.34328300  1
  O2-  O8  1  0.19374000  0.50129100  0.34328300  1
  O2-  O9  1  0.80626000  0.00129100  0.65671700  1
