# generated using pymatgen
data_LaAuO3
_symmetry_space_group_name_H-M   'P 1'
_cell_length_a   4.06924200
_cell_length_b   5.75254500
_cell_length_c   13.26282300
_cell_angle_alpha   90.00000000
_cell_angle_beta   90.00000000
_cell_angle_gamma   90.00000000
_symmetry_Int_Tables_number   1
_chemical_formula_structural   LaAuO3
_chemical_formula_sum   'La4 Au4 O12'
_cell_volume   310.46276197
_cell_formula_units_Z   4
loop_
 _symmetry_equiv_pos_site_id
 _symmetry_equiv_pos_as_xyz
  1  'x, y, z'
loop_
 _atom_type_symbol
 _atom_type_oxidation_number
  La3+  3.0
  Au3+  3.0
  O2-  -2.0
loop_
 _atom_site_type_symbol
 _atom_site_label
 _atom_site_symmetry_multiplicity
 _atom_site_fract_x
 _atom_site_fract_y
 _atom_site_fract_z
 _atom_site_occupancy
  La3+  La0  1  0.26449000  0.75000000  0.91943600  1
  La3+  La1  1  0.26449000  0.25000000  0.58056400  1
  La3+  La2  1  0.73551000  0.25000000  0.08056400  1
  La3+  La3  1  0.73551000  0.75000000  0.41943600  1
  Au3+  Au4  1  0.07285200  0.75000000  0.17028200  1
  Au3+  Au5  1  0.07285200  0.25000000  0.32971800  1
  Au3+  Au6  1  0.92714800  0.25000000  0.82971800  1
  Au3+  Au7  1  0.92714800  0.75000000  0.67028200  1
  O2-  O8  1  0.17244900  0.50000000  0.75000000  1
  O2-  O9  1  0.82755100  0.00000000  0.25000000  1
  O2-  O10  1  0.82755100  0.50000000  0.25000000  1
  O2-  O11  1  0.17244900  0.00000000  0.75000000  1
  O2-  O12  1  0.74379700  0.49607900  0.92186200  1
  O2-  O13  1  0.74379700  0.50392100  0.57813800  1
  O2-  O14  1  0.25620300  0.99607900  0.07813800  1
  O2-  O15  1  0.25620300  0.00392100  0.42186200  1
  O2-  O16  1  0.74379700  0.99607900  0.57813800  1
  O2-  O17  1  0.74379700  0.00392100  0.92186200  1
  O2-  O18  1  0.25620300  0.49607900  0.42186200  1
  O2-  O19  1  0.25620300  0.50392100  0.07813800  1
