# generated using pymatgen
data_LaBO3
_symmetry_space_group_name_H-M   'P 1'
_cell_length_a   5.14452400
_cell_length_b   5.91933100
_cell_length_c   8.29142700
_cell_angle_alpha   90.00000000
_cell_angle_beta   90.00000000
_cell_angle_gamma   90.00000000
_symmetry_Int_Tables_number   1
_chemical_formula_structural   LaBO3
_chemical_formula_sum   'La4 B4 O12'
_cell_volume   252.49169907
_cell_formula_units_Z   4
loop_
 _symmetry_equiv_pos_site_id
 _symmetry_equiv_pos_as_xyz
  1  'x, y, z'
loop_
 _atom_type_symbol
 _atom_type_oxidation_number
  La3+  3.0
  B3+  3.0
  O2-  -2.0
loop_
 _atom_site_type_symbol
 _atom_site_label
 _atom_site_symmetry_multiplicity
 _atom_site_fract_x
 _atom_site_fract_y
 _atom_site_fract_z
 _atom_site_occupancy
  La3+  La0  1  0.25000000  0.75647700  0.91532500  1
  La3+  La1  1  0.75000000  0.24352300  0.08467500  1
  La3+  La2  1  0.25000000  0.25647700  0.58467500  1
  La3+  La3  1  0.75000000  0.74352300  0.41532500  1
  B3+  B4  1  0.25000000  0.92063200  0.26068100  1
  B3+  B5  1  0.75000000  0.07936800  0.73931900  1
  B3+  B6  1  0.25000000  0.42063200  0.23931900  1
  B3+  B7  1  0.75000000  0.57936800  0.76068100  1
  O2-  O8  1  0.75000000  0.59172800  0.92670100  1
  O2-  O9  1  0.25000000  0.40827200  0.07329900  1
  O2-  O10  1  0.75000000  0.09172800  0.57329900  1
  O2-  O11  1  0.25000000  0.90827200  0.42670100  1
  O2-  O12  1  0.51771600  0.58415200  0.67632200  1
  O2-  O13  1  0.01771600  0.41584800  0.32367800  1
  O2-  O14  1  0.98228400  0.08415200  0.82367800  1
  O2-  O15  1  0.48228400  0.91584800  0.17632200  1
  O2-  O16  1  0.48228400  0.41584800  0.32367800  1
  O2-  O17  1  0.98228400  0.58415200  0.67632200  1
  O2-  O18  1  0.01771600  0.91584800  0.17632200  1
  O2-  O19  1  0.51771600  0.08415200  0.82367800  1
