# generated using pymatgen
data_LaSb5O12
_symmetry_space_group_name_H-M   'P 1'
_cell_length_a   7.38962387
_cell_length_b   7.38962387
_cell_length_c   16.75261166
_cell_angle_alpha   90.00000000
_cell_angle_beta   90.00000000
_cell_angle_gamma   120.00000000
_symmetry_Int_Tables_number   1
_chemical_formula_structural   LaSb5O12
_chemical_formula_sum   'La3 Sb15 O36'
_cell_volume   792.24192128
_cell_formula_units_Z   3
loop_
 _symmetry_equiv_pos_site_id
 _symmetry_equiv_pos_as_xyz
  1  'x, y, z'
loop_
 _atom_type_symbol
 _atom_type_oxidation_number
  La2+  2.0
  Sb4+  4.0
  Sb5+  5.0
  O2-  -2.0
loop_
 _atom_site_type_symbol
 _atom_site_label
 _atom_site_symmetry_multiplicity
 _atom_site_fract_x
 _atom_site_fract_y
 _atom_site_fract_z
 _atom_site_occupancy
  La2+  La0  1  0.33333333  0.66666667  0.16666667  1
  La2+  La1  1  1.00000000  1.00000000  0.50000000  1
  La2+  La2  1  0.66666667  0.33333333  0.83333333  1
  Sb4+  Sb3  1  0.00000000  0.50000000  0.00000000  1
  Sb4+  Sb4  1  0.50000000  0.50000000  0.00000000  1
  Sb4+  Sb5  1  0.16666667  0.33333333  0.33333333  1
  Sb4+  Sb6  1  0.66666667  0.83333333  0.33333333  1
  Sb4+  Sb7  1  0.16666667  0.83333333  0.33333333  1
  Sb4+  Sb8  1  0.83333333  0.66666667  0.66666667  1
  Sb4+  Sb9  1  0.33333333  0.16666667  0.66666667  1
  Sb4+  Sb10  1  0.83333333  0.16666667  0.66666667  1
  Sb4+  Sb11  1  0.50000000  0.00000000  0.00000000  1
  Sb5+  Sb12  1  0.33333333  0.66666667  0.51366367  1
  Sb5+  Sb13  1  0.33333333  0.66666667  0.81966967  1
  Sb5+  Sb14  1  0.00000000  0.00000000  0.84699700  1
  Sb5+  Sb15  1  0.00000000  0.00000000  0.15300300  1
  Sb5+  Sb16  1  0.66666667  0.33333333  0.18033033  1
  Sb5+  Sb17  1  0.66666667  0.33333333  0.48633633  1
  O2-  O18  1  0.93176733  0.46588367  0.11690767  1
  O2-  O19  1  0.53411633  0.46588367  0.11690767  1
  O2-  O20  1  0.53411633  0.06823267  0.11690767  1
  O2-  O21  1  0.73489933  0.86744967  0.21642567  1
  O2-  O22  1  0.13255033  0.86744967  0.21642567  1
  O2-  O23  1  0.13255033  0.26510067  0.21642567  1
  O2-  O24  1  0.20795533  0.79204467  0.03397767  1
  O2-  O25  1  0.58408933  0.79204467  0.03397767  1
  O2-  O26  1  0.20795533  0.41591067  0.03397767  1
  O2-  O27  1  0.08257733  0.54128867  0.29935567  1
  O2-  O28  1  0.45871133  0.91742267  0.29935567  1
  O2-  O29  1  0.45871133  0.54128867  0.29935567  1
  O2-  O30  1  0.59843400  0.79921700  0.45024100  1
  O2-  O31  1  0.20078300  0.79921700  0.45024100  1
  O2-  O32  1  0.20078300  0.40156600  0.45024100  1
  O2-  O33  1  0.40156600  0.20078300  0.54975900  1
  O2-  O34  1  0.79921700  0.20078300  0.54975900  1
  O2-  O35  1  0.79921700  0.59843400  0.54975900  1
  O2-  O36  1  0.87462200  0.12537800  0.36731100  1
  O2-  O37  1  0.25075600  0.12537800  0.36731100  1
  O2-  O38  1  0.87462200  0.74924400  0.36731100  1
  O2-  O39  1  0.74924400  0.87462200  0.63268900  1
  O2-  O40  1  0.12537800  0.25075600  0.63268900  1
  O2-  O41  1  0.12537800  0.87462200  0.63268900  1
  O2-  O42  1  0.26510067  0.13255033  0.78357433  1
  O2-  O43  1  0.86744967  0.13255033  0.78357433  1
  O2-  O44  1  0.86744967  0.73489933  0.78357433  1
  O2-  O45  1  0.06823267  0.53411633  0.88309233  1
  O2-  O46  1  0.46588367  0.53411633  0.88309233  1
  O2-  O47  1  0.46588367  0.93176733  0.88309233  1
  O2-  O48  1  0.54128867  0.45871133  0.70064433  1
  O2-  O49  1  0.91742267  0.45871133  0.70064433  1
  O2-  O50  1  0.54128867  0.08257733  0.70064433  1
  O2-  O51  1  0.41591067  0.20795533  0.96602233  1
  O2-  O52  1  0.79204467  0.58408933  0.96602233  1
  O2-  O53  1  0.79204467  0.20795533  0.96602233  1
