# generated using pymatgen
data_LaTiSbO6
_symmetry_space_group_name_H-M   'P 1'
_cell_length_a   5.29088404
_cell_length_b   5.29088404
_cell_length_c   5.18680600
_cell_angle_alpha   90.00000000
_cell_angle_beta   90.00000000
_cell_angle_gamma   120.00000000
_symmetry_Int_Tables_number   1
_chemical_formula_structural   LaTiSbO6
_chemical_formula_sum   'La1 Ti1 Sb1 O6'
_cell_volume   125.74395700
_cell_formula_units_Z   1
loop_
 _symmetry_equiv_pos_site_id
 _symmetry_equiv_pos_as_xyz
  1  'x, y, z'
loop_
 _atom_type_symbol
 _atom_type_oxidation_number
  La3+  3.0
  Ti4+  4.0
  Sb5+  5.0
  O2-  -2.0
loop_
 _atom_site_type_symbol
 _atom_site_label
 _atom_site_symmetry_multiplicity
 _atom_site_fract_x
 _atom_site_fract_y
 _atom_site_fract_z
 _atom_site_occupancy
  La3+  La0  1  0.00000000  0.00000000  0.00000000  1
  Ti4+  Ti1  1  0.66666667  0.33333333  0.50000000  1
  Sb5+  Sb2  1  0.33333333  0.66666667  0.50000000  1
  O2-  O3  1  0.62715500  0.62392900  0.71435300  1
  O2-  O4  1  0.99677400  0.37284500  0.71435300  1
  O2-  O5  1  0.37607100  0.00322600  0.71435300  1
  O2-  O6  1  0.37607100  0.37284500  0.28564700  1
  O2-  O7  1  0.99677400  0.62392900  0.28564700  1
  O2-  O8  1  0.62715500  0.00322600  0.28564700  1
