# generated using pymatgen
data_Li2CaGeO4
_symmetry_space_group_name_H-M   'P 1'
_cell_length_a   5.15909600
_cell_length_b   5.15909600
_cell_length_c   6.83042400
_cell_angle_alpha   90.00000000
_cell_angle_beta   90.00000000
_cell_angle_gamma   90.00000000
_symmetry_Int_Tables_number   1
_chemical_formula_structural   Li2CaGeO4
_chemical_formula_sum   'Li4 Ca2 Ge2 O8'
_cell_volume   181.80041990
_cell_formula_units_Z   2
loop_
 _symmetry_equiv_pos_site_id
 _symmetry_equiv_pos_as_xyz
  1  'x, y, z'
loop_
 _atom_type_symbol
 _atom_type_oxidation_number
  Li+  1.0
  Ca2+  2.0
  Ge4+  4.0
  O2-  -2.0
loop_
 _atom_site_type_symbol
 _atom_site_label
 _atom_site_symmetry_multiplicity
 _atom_site_fract_x
 _atom_site_fract_y
 _atom_site_fract_z
 _atom_site_occupancy
  Li+  Li0  1  0.50000000  0.00000000  0.25000000  1
  Li+  Li1  1  0.00000000  0.50000000  0.25000000  1
  Li+  Li2  1  0.00000000  0.50000000  0.75000000  1
  Li+  Li3  1  0.50000000  0.00000000  0.75000000  1
  Ca2+  Ca4  1  0.00000000  0.00000000  0.50000000  1
  Ca2+  Ca5  1  0.50000000  0.50000000  0.00000000  1
  Ge4+  Ge6  1  0.00000000  0.00000000  0.00000000  1
  Ge4+  Ge7  1  0.50000000  0.50000000  0.50000000  1
  O2-  O8  1  0.70371800  0.29628200  0.64457500  1
  O2-  O9  1  0.29628200  0.70371800  0.64457500  1
  O2-  O10  1  0.29628200  0.29628200  0.35542500  1
  O2-  O11  1  0.20371800  0.20371800  0.85542500  1
  O2-  O12  1  0.20371800  0.79628200  0.14457500  1
  O2-  O13  1  0.79628200  0.20371800  0.14457500  1
  O2-  O14  1  0.79628200  0.79628200  0.85542500  1
  O2-  O15  1  0.70371800  0.70371800  0.35542500  1
