# generated using pymatgen
data_Li2GeO3
_symmetry_space_group_name_H-M   'P 1'
_cell_length_a   5.54824600
_cell_length_b   9.72838600
_cell_length_c   4.93478500
_cell_angle_alpha   90.00000000
_cell_angle_beta   90.00000000
_cell_angle_gamma   90.00000000
_symmetry_Int_Tables_number   1
_chemical_formula_structural   Li2GeO3
_chemical_formula_sum   'Li8 Ge4 O12'
_cell_volume   266.35738271
_cell_formula_units_Z   4
loop_
 _symmetry_equiv_pos_site_id
 _symmetry_equiv_pos_as_xyz
  1  'x, y, z'
loop_
 _atom_type_symbol
 _atom_type_oxidation_number
  Li+  1.0
  Ge4+  4.0
  O2-  -2.0
loop_
 _atom_site_type_symbol
 _atom_site_label
 _atom_site_symmetry_multiplicity
 _atom_site_fract_x
 _atom_site_fract_y
 _atom_site_fract_z
 _atom_site_occupancy
  Li+  Li0  1  0.34197850  0.17444250  0.98831500  1
  Li+  Li1  1  0.15802150  0.32555750  0.48831500  1
  Li+  Li2  1  0.65802150  0.17444250  0.48831500  1
  Li+  Li3  1  0.84197850  0.32555750  0.98831500  1
  Li+  Li4  1  0.84197850  0.67444250  0.98831500  1
  Li+  Li5  1  0.65802150  0.82555750  0.48831500  1
  Li+  Li6  1  0.15802150  0.67444250  0.48831500  1
  Li+  Li7  1  0.34197850  0.82555750  0.98831500  1
  Ge4+  Ge8  1  0.17810300  0.00000000  0.49838700  1
  Ge4+  Ge9  1  0.82189700  0.00000000  0.99838700  1
  Ge4+  Ge10  1  0.67810300  0.50000000  0.49838700  1
  Ge4+  Ge11  1  0.32189700  0.50000000  0.99838700  1
  O2-  O12  1  0.13445600  0.00000000  0.12757400  1
  O2-  O13  1  0.81706800  0.34739800  0.58965400  1
  O2-  O14  1  0.31706800  0.15260200  0.58965400  1
  O2-  O15  1  0.86554400  0.00000000  0.62757400  1
  O2-  O16  1  0.18293200  0.34739800  0.08965400  1
  O2-  O17  1  0.68293200  0.15260200  0.08965400  1
  O2-  O18  1  0.63445600  0.50000000  0.12757400  1
  O2-  O19  1  0.31706800  0.84739800  0.58965400  1
  O2-  O20  1  0.81706800  0.65260200  0.58965400  1
  O2-  O21  1  0.36554400  0.50000000  0.62757400  1
  O2-  O22  1  0.68293200  0.84739800  0.08965400  1
  O2-  O23  1  0.18293200  0.65260200  0.08965400  1
