# generated using pymatgen
data_Li2HfO3
_symmetry_space_group_name_H-M   'P 1'
_cell_length_a   5.43769800
_cell_length_b   9.02114600
_cell_length_c   5.41137379
_cell_angle_alpha   90.00000000
_cell_angle_beta   112.77807961
_cell_angle_gamma   90.00000000
_symmetry_Int_Tables_number   1
_chemical_formula_structural   Li2HfO3
_chemical_formula_sum   'Li8 Hf4 O12'
_cell_volume   244.74881175
_cell_formula_units_Z   4
loop_
 _symmetry_equiv_pos_site_id
 _symmetry_equiv_pos_as_xyz
  1  'x, y, z'
loop_
 _atom_type_symbol
 _atom_type_oxidation_number
  Li+  1.0
  Hf4+  4.0
  O2-  -2.0
loop_
 _atom_site_type_symbol
 _atom_site_label
 _atom_site_symmetry_multiplicity
 _atom_site_fract_x
 _atom_site_fract_y
 _atom_site_fract_z
 _atom_site_occupancy
  Li+  Li0  1  0.50000000  0.57580800  0.25000000  1
  Li+  Li1  1  0.50000000  0.25817500  0.25000000  1
  Li+  Li2  1  0.50000000  0.42419200  0.75000000  1
  Li+  Li3  1  0.50000000  0.74182500  0.75000000  1
  Li+  Li4  1  0.00000000  0.07580800  0.25000000  1
  Li+  Li5  1  0.00000000  0.75817500  0.25000000  1
  Li+  Li6  1  0.00000000  0.92419200  0.75000000  1
  Li+  Li7  1  0.00000000  0.24182500  0.75000000  1
  Hf4+  Hf8  1  0.50000000  0.90922200  0.25000000  1
  Hf4+  Hf9  1  0.50000000  0.09077800  0.75000000  1
  Hf4+  Hf10  1  0.00000000  0.40922200  0.25000000  1
  Hf4+  Hf11  1  0.00000000  0.59077800  0.75000000  1
  O2-  O12  1  0.72738200  0.07551000  0.51535200  1
  O2-  O13  1  0.72738200  0.92449000  0.01535200  1
  O2-  O14  1  0.75000000  0.75000000  0.50000000  1
  O2-  O15  1  0.27261800  0.92449000  0.48464800  1
  O2-  O16  1  0.75000000  0.25000000  0.00000000  1
  O2-  O17  1  0.27261800  0.07551000  0.98464800  1
  O2-  O18  1  0.22738200  0.57551000  0.51535200  1
  O2-  O19  1  0.22738200  0.42449000  0.01535200  1
  O2-  O20  1  0.25000000  0.25000000  0.50000000  1
  O2-  O21  1  0.77261800  0.42449000  0.48464800  1
  O2-  O22  1  0.25000000  0.75000000  0.00000000  1
  O2-  O23  1  0.77261800  0.57551000  0.98464800  1
