# generated using pymatgen
data_Li2HgO2
_symmetry_space_group_name_H-M   'P 1'
_cell_length_a   3.08747800
_cell_length_b   3.08747800
_cell_length_c   12.79986600
_cell_angle_alpha   90.00000000
_cell_angle_beta   90.00000000
_cell_angle_gamma   90.00000000
_symmetry_Int_Tables_number   1
_chemical_formula_structural   Li2HgO2
_chemical_formula_sum   'Li4 Hg2 O4'
_cell_volume   122.01498377
_cell_formula_units_Z   2
loop_
 _symmetry_equiv_pos_site_id
 _symmetry_equiv_pos_as_xyz
  1  'x, y, z'
loop_
 _atom_type_symbol
 _atom_type_oxidation_number
  Li+  1.0
  Hg2+  2.0
  O2-  -2.0
loop_
 _atom_site_type_symbol
 _atom_site_label
 _atom_site_symmetry_multiplicity
 _atom_site_fract_x
 _atom_site_fract_y
 _atom_site_fract_z
 _atom_site_occupancy
  Li+  Li0  1  0.00000000  0.00000000  0.31267350  1
  Li+  Li1  1  0.50000000  0.50000000  0.18732650  1
  Li+  Li2  1  0.50000000  0.50000000  0.81267350  1
  Li+  Li3  1  0.00000000  0.00000000  0.68732650  1
  Hg2+  Hg4  1  0.00000000  0.00000000  0.00000000  1
  Hg2+  Hg5  1  0.50000000  0.50000000  0.50000000  1
  O2-  O6  1  0.00000000  0.00000000  0.15795050  1
  O2-  O7  1  0.50000000  0.50000000  0.34204950  1
  O2-  O8  1  0.50000000  0.50000000  0.65795050  1
  O2-  O9  1  0.00000000  0.00000000  0.84204950  1
