# generated using pymatgen
data_Li2PdO3
_symmetry_space_group_name_H-M   'P 1'
_cell_length_a   5.19326000
_cell_length_b   9.00866800
_cell_length_c   5.14136449
_cell_angle_alpha   90.00000000
_cell_angle_beta   109.29486419
_cell_angle_gamma   90.00000000
_symmetry_Int_Tables_number   1
_chemical_formula_structural   Li2PdO3
_chemical_formula_sum   'Li8 Pd4 O12'
_cell_volume   227.02468590
_cell_formula_units_Z   4
loop_
 _symmetry_equiv_pos_site_id
 _symmetry_equiv_pos_as_xyz
  1  'x, y, z'
loop_
 _atom_type_symbol
 _atom_type_oxidation_number
  Li+  1.0
  Pd4+  4.0
  O2-  -2.0
loop_
 _atom_site_type_symbol
 _atom_site_label
 _atom_site_symmetry_multiplicity
 _atom_site_fract_x
 _atom_site_fract_y
 _atom_site_fract_z
 _atom_site_occupancy
  Li+  Li0  1  0.50000000  0.00000000  0.50000000  1
  Li+  Li1  1  0.50000000  0.66881300  0.50000000  1
  Li+  Li2  1  0.00000000  0.83118700  0.50000000  1
  Li+  Li3  1  0.00000000  0.00000000  0.00000000  1
  Li+  Li4  1  0.00000000  0.50000000  0.50000000  1
  Li+  Li5  1  0.00000000  0.16881300  0.50000000  1
  Li+  Li6  1  0.50000000  0.33118700  0.50000000  1
  Li+  Li7  1  0.50000000  0.50000000  0.00000000  1
  Pd4+  Pd8  1  0.50000000  0.83325700  0.00000000  1
  Pd4+  Pd9  1  0.00000000  0.66674300  0.00000000  1
  Pd4+  Pd10  1  0.00000000  0.33325700  0.00000000  1
  Pd4+  Pd11  1  0.50000000  0.16674300  0.00000000  1
  O2-  O12  1  0.72887700  0.00000000  0.23669300  1
  O2-  O13  1  0.75058200  0.82615900  0.76626400  1
  O2-  O14  1  0.25058200  0.67384100  0.76626400  1
  O2-  O15  1  0.74941800  0.67384100  0.23373600  1
  O2-  O16  1  0.24941800  0.82615900  0.23373600  1
  O2-  O17  1  0.27112300  0.00000000  0.76330700  1
  O2-  O18  1  0.22887700  0.50000000  0.23669300  1
  O2-  O19  1  0.25058200  0.32615900  0.76626400  1
  O2-  O20  1  0.75058200  0.17384100  0.76626400  1
  O2-  O21  1  0.24941800  0.17384100  0.23373600  1
  O2-  O22  1  0.74941800  0.32615900  0.23373600  1
  O2-  O23  1  0.77112300  0.50000000  0.76330700  1
