# generated using pymatgen
data_Li5AuO4
_symmetry_space_group_name_H-M   'P 1'
_cell_length_a   4.77667800
_cell_length_b   9.60820400
_cell_length_c   4.77686826
_cell_angle_alpha   90.00000000
_cell_angle_beta   102.76660763
_cell_angle_gamma   90.00000000
_symmetry_Int_Tables_number   1
_chemical_formula_structural   Li5AuO4
_chemical_formula_sum   'Li10 Au2 O8'
_cell_volume   213.81590662
_cell_formula_units_Z   2
loop_
 _symmetry_equiv_pos_site_id
 _symmetry_equiv_pos_as_xyz
  1  'x, y, z'
loop_
 _atom_type_symbol
 _atom_type_oxidation_number
  Li+  1.0
  Au3+  3.0
  O2-  -2.0
loop_
 _atom_site_type_symbol
 _atom_site_label
 _atom_site_symmetry_multiplicity
 _atom_site_fract_x
 _atom_site_fract_y
 _atom_site_fract_z
 _atom_site_occupancy
  Li+  Li0  1  0.00000000  0.20960200  0.50000000  1
  Li+  Li1  1  0.50000000  0.21567300  0.00000000  1
  Li+  Li2  1  0.00000000  0.28432700  0.00000000  1
  Li+  Li3  1  0.50000000  0.29039800  0.50000000  1
  Li+  Li4  1  0.00000000  0.00000000  0.00000000  1
  Li+  Li5  1  0.50000000  0.70960200  0.50000000  1
  Li+  Li6  1  0.00000000  0.71567300  0.00000000  1
  Li+  Li7  1  0.50000000  0.78432700  0.00000000  1
  Li+  Li8  1  0.00000000  0.79039800  0.50000000  1
  Li+  Li9  1  0.50000000  0.50000000  0.00000000  1
  Au3+  Au10  1  0.50000000  0.00000000  0.50000000  1
  Au3+  Au11  1  0.00000000  0.50000000  0.50000000  1
  O2-  O12  1  0.25437950  0.14712450  0.25020000  1
  O2-  O13  1  0.74562050  0.14712450  0.74980000  1
  O2-  O14  1  0.75437950  0.35287550  0.25020000  1
  O2-  O15  1  0.24562050  0.35287550  0.74980000  1
  O2-  O16  1  0.75437950  0.64712450  0.25020000  1
  O2-  O17  1  0.24562050  0.64712450  0.74980000  1
  O2-  O18  1  0.25437950  0.85287550  0.25020000  1
  O2-  O19  1  0.74562050  0.85287550  0.74980000  1
