# generated using pymatgen
data_LiIn(WO4)2
_symmetry_space_group_name_H-M   'P 1'
_cell_length_a   9.71958000
_cell_length_b   11.81262800
_cell_length_c   5.09700303
_cell_angle_alpha   90.00000000
_cell_angle_beta   91.61034948
_cell_angle_gamma   90.00000000
_symmetry_Int_Tables_number   1
_chemical_formula_structural   LiIn(WO4)2
_chemical_formula_sum   'Li4 In4 W8 O32'
_cell_volume   584.97507551
_cell_formula_units_Z   4
loop_
 _symmetry_equiv_pos_site_id
 _symmetry_equiv_pos_as_xyz
  1  'x, y, z'
loop_
 _atom_type_symbol
 _atom_type_oxidation_number
  Li+  1.0
  In3+  3.0
  W6+  6.0
  O2-  -2.0
loop_
 _atom_site_type_symbol
 _atom_site_label
 _atom_site_symmetry_multiplicity
 _atom_site_fract_x
 _atom_site_fract_y
 _atom_site_fract_z
 _atom_site_occupancy
  Li+  Li0  1  0.50000000  0.65793900  0.25000000  1
  Li+  Li1  1  0.50000000  0.34206100  0.75000000  1
  Li+  Li2  1  0.00000000  0.15793900  0.25000000  1
  Li+  Li3  1  0.00000000  0.84206100  0.75000000  1
  In3+  In4  1  0.50000000  0.16707900  0.25000000  1
  In3+  In5  1  0.50000000  0.83292100  0.75000000  1
  In3+  In6  1  0.00000000  0.66707900  0.25000000  1
  In3+  In7  1  0.00000000  0.33292100  0.75000000  1
  W6+  W8  1  0.24396200  0.91448300  0.24703000  1
  W6+  W9  1  0.75603800  0.91448300  0.25297000  1
  W6+  W10  1  0.75603800  0.08551700  0.75297000  1
  W6+  W11  1  0.24396200  0.08551700  0.74703000  1
  W6+  W12  1  0.74396200  0.41448300  0.24703000  1
  W6+  W13  1  0.25603800  0.41448300  0.25297000  1
  W6+  W14  1  0.25603800  0.58551700  0.75297000  1
  W6+  W15  1  0.74396200  0.58551700  0.74703000  1
  O2-  O16  1  0.35500600  0.94600800  0.93165400  1
  O2-  O17  1  0.64499400  0.94600800  0.56834600  1
  O2-  O18  1  0.64499400  0.05399200  0.06834600  1
  O2-  O19  1  0.35500600  0.05399200  0.43165400  1
  O2-  O20  1  0.37500000  0.81971100  0.39389000  1
  O2-  O21  1  0.62500000  0.81971100  0.10611000  1
  O2-  O22  1  0.62500000  0.18028900  0.60611000  1
  O2-  O23  1  0.37500000  0.18028900  0.89389000  1
  O2-  O24  1  0.85534450  0.94962750  0.94311300  1
  O2-  O25  1  0.14465550  0.94962750  0.55688700  1
  O2-  O26  1  0.14465550  0.05037250  0.05688700  1
  O2-  O27  1  0.85534450  0.05037250  0.44311300  1
  O2-  O28  1  0.37807050  0.31223350  0.39414600  1
  O2-  O29  1  0.62192950  0.31223350  0.10585400  1
  O2-  O30  1  0.62192950  0.68776650  0.60585400  1
  O2-  O31  1  0.37807050  0.68776650  0.89414600  1
  O2-  O32  1  0.85500600  0.44600800  0.93165400  1
  O2-  O33  1  0.14499400  0.44600800  0.56834600  1
  O2-  O34  1  0.14499400  0.55399200  0.06834600  1
  O2-  O35  1  0.85500600  0.55399200  0.43165400  1
  O2-  O36  1  0.87500000  0.31971100  0.39389000  1
  O2-  O37  1  0.12500000  0.31971100  0.10611000  1
  O2-  O38  1  0.12500000  0.68028900  0.60611000  1
  O2-  O39  1  0.87500000  0.68028900  0.89389000  1
  O2-  O40  1  0.35534450  0.44962750  0.94311300  1
  O2-  O41  1  0.64465550  0.44962750  0.55688700  1
  O2-  O42  1  0.64465550  0.55037250  0.05688700  1
  O2-  O43  1  0.35534450  0.55037250  0.44311300  1
  O2-  O44  1  0.87807050  0.81223350  0.39414600  1
  O2-  O45  1  0.12192950  0.81223350  0.10585400  1
  O2-  O46  1  0.12192950  0.18776650  0.60585400  1
  O2-  O47  1  0.87807050  0.18776650  0.89414600  1
