# generated using pymatgen
data_LiSc(WO4)2
_symmetry_space_group_name_H-M   'P 1'
_cell_length_a   9.66613400
_cell_length_b   11.60833200
_cell_length_c   5.07471051
_cell_angle_alpha   90.00000000
_cell_angle_beta   91.30214969
_cell_angle_gamma   90.00000000
_symmetry_Int_Tables_number   1
_chemical_formula_structural   LiSc(WO4)2
_chemical_formula_sum   'Li4 Sc4 W8 O32'
_cell_volume   569.27450778
_cell_formula_units_Z   4
loop_
 _symmetry_equiv_pos_site_id
 _symmetry_equiv_pos_as_xyz
  1  'x, y, z'
loop_
 _atom_type_symbol
 _atom_type_oxidation_number
  Li+  1.0
  Sc3+  3.0
  W6+  6.0
  O2-  -2.0
loop_
 _atom_site_type_symbol
 _atom_site_label
 _atom_site_symmetry_multiplicity
 _atom_site_fract_x
 _atom_site_fract_y
 _atom_site_fract_z
 _atom_site_occupancy
  Li+  Li0  1  0.50000000  0.16711900  0.75000000  1
  Li+  Li1  1  0.50000000  0.83288100  0.25000000  1
  Li+  Li2  1  0.00000000  0.66711900  0.75000000  1
  Li+  Li3  1  0.00000000  0.33288100  0.25000000  1
  Sc3+  Sc4  1  0.50000000  0.66815500  0.75000000  1
  Sc3+  Sc5  1  0.50000000  0.33184500  0.25000000  1
  Sc3+  Sc6  1  0.00000000  0.16815500  0.75000000  1
  Sc3+  Sc7  1  0.00000000  0.83184500  0.25000000  1
  W6+  W8  1  0.74679300  0.91376200  0.75265400  1
  W6+  W9  1  0.25320700  0.08623800  0.24734600  1
  W6+  W10  1  0.25320700  0.91376200  0.74734600  1
  W6+  W11  1  0.74679300  0.08623800  0.25265400  1
  W6+  W12  1  0.24679300  0.41376200  0.75265400  1
  W6+  W13  1  0.75320700  0.58623800  0.24734600  1
  W6+  W14  1  0.75320700  0.41376200  0.74734600  1
  W6+  W15  1  0.24679300  0.58623800  0.25265400  1
  O2-  O16  1  0.62157100  0.68277000  0.09669800  1
  O2-  O17  1  0.37842900  0.31723000  0.90330200  1
  O2-  O18  1  0.37842900  0.68277000  0.40330200  1
  O2-  O19  1  0.62157100  0.31723000  0.59669800  1
  O2-  O20  1  0.14065050  0.05676950  0.56492400  1
  O2-  O21  1  0.85934950  0.94323050  0.43507600  1
  O2-  O22  1  0.85934950  0.05676950  0.93507600  1
  O2-  O23  1  0.14065050  0.94323050  0.06492400  1
  O2-  O24  1  0.62295400  0.81008400  0.61319600  1
  O2-  O25  1  0.37704600  0.18991600  0.38680400  1
  O2-  O26  1  0.37704600  0.81008400  0.88680400  1
  O2-  O27  1  0.62295400  0.18991600  0.11319600  1
  O2-  O28  1  0.35283000  0.05126100  0.93544100  1
  O2-  O29  1  0.64717000  0.94873900  0.06455900  1
  O2-  O30  1  0.64717000  0.05126100  0.56455900  1
  O2-  O31  1  0.35283000  0.94873900  0.43544100  1
  O2-  O32  1  0.12157100  0.18277000  0.09669800  1
  O2-  O33  1  0.87842900  0.81723000  0.90330200  1
  O2-  O34  1  0.87842900  0.18277000  0.40330200  1
  O2-  O35  1  0.12157100  0.81723000  0.59669800  1
  O2-  O36  1  0.64065050  0.55676950  0.56492400  1
  O2-  O37  1  0.35934950  0.44323050  0.43507600  1
  O2-  O38  1  0.35934950  0.55676950  0.93507600  1
  O2-  O39  1  0.64065050  0.44323050  0.06492400  1
  O2-  O40  1  0.12295400  0.31008400  0.61319600  1
  O2-  O41  1  0.87704600  0.68991600  0.38680400  1
  O2-  O42  1  0.87704600  0.31008400  0.88680400  1
  O2-  O43  1  0.12295400  0.68991600  0.11319600  1
  O2-  O44  1  0.85283000  0.55126100  0.93544100  1
  O2-  O45  1  0.14717000  0.44873900  0.06455900  1
  O2-  O46  1  0.14717000  0.55126100  0.56455900  1
  O2-  O47  1  0.85283000  0.44873900  0.43544100  1
