# generated using pymatgen
data_Mg(ReO4)2
_symmetry_space_group_name_H-M   'P 1'
_cell_length_a   5.81861779
_cell_length_b   5.81861779
_cell_length_c   6.66660300
_cell_angle_alpha   90.00000000
_cell_angle_beta   90.00000000
_cell_angle_gamma   120.00000000
_symmetry_Int_Tables_number   1
_chemical_formula_structural   Mg(ReO4)2
_chemical_formula_sum   'Mg1 Re2 O8'
_cell_volume   195.46764753
_cell_formula_units_Z   1
loop_
 _symmetry_equiv_pos_site_id
 _symmetry_equiv_pos_as_xyz
  1  'x, y, z'
loop_
 _atom_type_symbol
 _atom_type_oxidation_number
  Mg2+  2.0
  Re7+  7.0
  O2-  -2.0
loop_
 _atom_site_type_symbol
 _atom_site_label
 _atom_site_symmetry_multiplicity
 _atom_site_fract_x
 _atom_site_fract_y
 _atom_site_fract_z
 _atom_site_occupancy
  Mg2+  Mg0  1  0.00000000  0.00000000  0.00000000  1
  Re7+  Re1  1  0.33333333  0.66666667  0.26742100  1
  Re7+  Re2  1  0.66666667  0.33333333  0.73257900  1
  O2-  O3  1  0.16911250  0.83088750  0.17944800  1
  O2-  O4  1  0.16911250  0.33822500  0.17944800  1
  O2-  O5  1  0.33333333  0.66666667  0.52749300  1
  O2-  O6  1  0.33822500  0.16911250  0.82055200  1
  O2-  O7  1  0.66177500  0.83088750  0.17944800  1
  O2-  O8  1  0.66666667  0.33333333  0.47250700  1
  O2-  O9  1  0.83088750  0.66177500  0.82055200  1
  O2-  O10  1  0.83088750  0.16911250  0.82055200  1
