# generated using pymatgen
data_Mg(SbO3)2
_symmetry_space_group_name_H-M   'P 1'
_cell_length_a   4.72889100
_cell_length_b   4.72889100
_cell_length_c   9.38538300
_cell_angle_alpha   90.00000000
_cell_angle_beta   90.00000000
_cell_angle_gamma   90.00000000
_symmetry_Int_Tables_number   1
_chemical_formula_structural   Mg(SbO3)2
_chemical_formula_sum   'Mg2 Sb4 O12'
_cell_volume   209.87978350
_cell_formula_units_Z   2
loop_
 _symmetry_equiv_pos_site_id
 _symmetry_equiv_pos_as_xyz
  1  'x, y, z'
loop_
 _atom_type_symbol
 _atom_type_oxidation_number
  Mg2+  2.0
  Sb5+  5.0
  O2-  -2.0
loop_
 _atom_site_type_symbol
 _atom_site_label
 _atom_site_symmetry_multiplicity
 _atom_site_fract_x
 _atom_site_fract_y
 _atom_site_fract_z
 _atom_site_occupancy
  Mg2+  Mg0  1  0.00000000  0.00000000  0.00000000  1
  Mg2+  Mg1  1  0.50000000  0.50000000  0.50000000  1
  Sb5+  Sb2  1  0.50000000  0.50000000  0.83233800  1
  Sb5+  Sb3  1  0.00000000  0.00000000  0.33233800  1
  Sb5+  Sb4  1  0.50000000  0.50000000  0.16766200  1
  Sb5+  Sb5  1  0.00000000  0.00000000  0.66766200  1
  O2-  O6  1  0.69759900  0.69759900  0.67142900  1
  O2-  O7  1  0.30240100  0.30240100  0.67142900  1
  O2-  O8  1  0.69759900  0.69759900  0.32857100  1
  O2-  O9  1  0.19759900  0.80240100  0.17142900  1
  O2-  O10  1  0.80240100  0.19759900  0.17142900  1
  O2-  O11  1  0.80240100  0.19759900  0.82857100  1
  O2-  O12  1  0.31018000  0.31018000  0.00000000  1
  O2-  O13  1  0.18982000  0.81018000  0.50000000  1
  O2-  O14  1  0.81018000  0.18982000  0.50000000  1
  O2-  O15  1  0.68982000  0.68982000  0.00000000  1
  O2-  O16  1  0.30240100  0.30240100  0.32857100  1
  O2-  O17  1  0.19759900  0.80240100  0.82857100  1
