# generated using pymatgen
data_Mg(SbO2)2
_symmetry_space_group_name_H-M   'P 1'
_cell_length_a   8.59154900
_cell_length_b   8.59154900
_cell_length_c   6.07501000
_cell_angle_alpha   90.00000000
_cell_angle_beta   90.00000000
_cell_angle_gamma   90.00000000
_symmetry_Int_Tables_number   1
_chemical_formula_structural   Mg(SbO2)2
_chemical_formula_sum   'Mg4 Sb8 O16'
_cell_volume   448.42512703
_cell_formula_units_Z   4
loop_
 _symmetry_equiv_pos_site_id
 _symmetry_equiv_pos_as_xyz
  1  'x, y, z'
loop_
 _atom_type_symbol
 _atom_type_oxidation_number
  Mg2+  2.0
  Sb3+  3.0
  O2-  -2.0
loop_
 _atom_site_type_symbol
 _atom_site_label
 _atom_site_symmetry_multiplicity
 _atom_site_fract_x
 _atom_site_fract_y
 _atom_site_fract_z
 _atom_site_occupancy
  Mg2+  Mg0  1  0.00000000  0.50000000  0.25000000  1
  Mg2+  Mg1  1  0.50000000  0.00000000  0.75000000  1
  Mg2+  Mg2  1  0.00000000  0.50000000  0.75000000  1
  Mg2+  Mg3  1  0.50000000  0.00000000  0.25000000  1
  Sb3+  Sb4  1  0.32469000  0.33352700  0.00000000  1
  Sb3+  Sb5  1  0.66647300  0.32469000  0.50000000  1
  Sb3+  Sb6  1  0.33352700  0.67531000  0.50000000  1
  Sb3+  Sb7  1  0.82469000  0.16647300  0.00000000  1
  Sb3+  Sb8  1  0.17531000  0.83352700  0.00000000  1
  Sb3+  Sb9  1  0.67531000  0.66647300  0.00000000  1
  Sb3+  Sb10  1  0.83352700  0.82469000  0.50000000  1
  Sb3+  Sb11  1  0.16647300  0.17531000  0.50000000  1
  O2-  O12  1  0.09883900  0.36505100  0.00000000  1
  O2-  O13  1  0.63494900  0.09883900  0.50000000  1
  O2-  O14  1  0.36505100  0.90116100  0.50000000  1
  O2-  O15  1  0.59883900  0.13494900  0.00000000  1
  O2-  O16  1  0.40116100  0.86505100  0.00000000  1
  O2-  O17  1  0.90116100  0.63494900  0.00000000  1
  O2-  O18  1  0.86505100  0.59883900  0.50000000  1
  O2-  O19  1  0.13494900  0.40116100  0.50000000  1
  O2-  O20  1  0.17657000  0.67657000  0.25000000  1
  O2-  O21  1  0.32343000  0.17657000  0.75000000  1
  O2-  O22  1  0.67657000  0.82343000  0.75000000  1
  O2-  O23  1  0.82343000  0.32343000  0.25000000  1
  O2-  O24  1  0.82343000  0.32343000  0.75000000  1
  O2-  O25  1  0.67657000  0.82343000  0.25000000  1
  O2-  O26  1  0.32343000  0.17657000  0.25000000  1
  O2-  O27  1  0.17657000  0.67657000  0.75000000  1
