# generated using pymatgen
data_Mg2GeO4
_symmetry_space_group_name_H-M   'P 1'
_cell_length_a   4.96975900
_cell_length_b   6.10276300
_cell_length_c   10.44234900
_cell_angle_alpha   90.00000000
_cell_angle_beta   90.00000000
_cell_angle_gamma   90.00000000
_symmetry_Int_Tables_number   1
_chemical_formula_structural   Mg2GeO4
_chemical_formula_sum   'Mg8 Ge4 O16'
_cell_volume   316.70873187
_cell_formula_units_Z   4
loop_
 _symmetry_equiv_pos_site_id
 _symmetry_equiv_pos_as_xyz
  1  'x, y, z'
loop_
 _atom_type_symbol
 _atom_type_oxidation_number
  Mg2+  2.0
  Ge4+  4.0
  O2-  -2.0
loop_
 _atom_site_type_symbol
 _atom_site_label
 _atom_site_symmetry_multiplicity
 _atom_site_fract_x
 _atom_site_fract_y
 _atom_site_fract_z
 _atom_site_occupancy
  Mg2+  Mg0  1  0.00000000  0.00000000  0.00000000  1
  Mg2+  Mg1  1  0.50000000  0.00000000  0.50000000  1
  Mg2+  Mg2  1  0.00000000  0.50000000  0.00000000  1
  Mg2+  Mg3  1  0.50000000  0.50000000  0.50000000  1
  Mg2+  Mg4  1  0.49343700  0.75000000  0.22390600  1
  Mg2+  Mg5  1  0.99343700  0.25000000  0.27609400  1
  Mg2+  Mg6  1  0.50656300  0.25000000  0.77609400  1
  Mg2+  Mg7  1  0.00656300  0.75000000  0.72390600  1
  Ge4+  Ge8  1  0.56384200  0.75000000  0.90567600  1
  Ge4+  Ge9  1  0.06384200  0.25000000  0.59432400  1
  Ge4+  Ge10  1  0.43615800  0.25000000  0.09432400  1
  Ge4+  Ge11  1  0.93615800  0.75000000  0.40567600  1
  O2-  O12  1  0.23316600  0.47864200  0.66437900  1
  O2-  O13  1  0.73316600  0.52135800  0.83562100  1
  O2-  O14  1  0.76683400  0.97864200  0.33562100  1
  O2-  O15  1  0.26683400  0.02135800  0.16437900  1
  O2-  O16  1  0.76683400  0.52135800  0.33562100  1
  O2-  O17  1  0.26683400  0.47864200  0.16437900  1
  O2-  O18  1  0.23316600  0.02135800  0.66437900  1
  O2-  O19  1  0.73316600  0.97864200  0.83562100  1
  O2-  O20  1  0.72984700  0.75000000  0.05987600  1
  O2-  O21  1  0.22984700  0.25000000  0.44012400  1
  O2-  O22  1  0.27015300  0.25000000  0.94012400  1
  O2-  O23  1  0.77015300  0.75000000  0.55987600  1
  O2-  O24  1  0.21107600  0.75000000  0.90790400  1
  O2-  O25  1  0.71107600  0.25000000  0.59209600  1
  O2-  O26  1  0.78892400  0.25000000  0.09209600  1
  O2-  O27  1  0.28892400  0.75000000  0.40790400  1
