# generated using pymatgen
data_Mg2PtO4
_symmetry_space_group_name_H-M   'P 1'
_cell_length_a   6.00145200
_cell_length_b   6.20566400
_cell_length_c   8.63976800
_cell_angle_alpha   90.00000000
_cell_angle_beta   90.00000000
_cell_angle_gamma   90.00000000
_symmetry_Int_Tables_number   1
_chemical_formula_structural   Mg2PtO4
_chemical_formula_sum   'Mg8 Pt4 O16'
_cell_volume   321.77083318
_cell_formula_units_Z   4
loop_
 _symmetry_equiv_pos_site_id
 _symmetry_equiv_pos_as_xyz
  1  'x, y, z'
loop_
 _atom_type_symbol
 _atom_type_oxidation_number
  Mg2+  2.0
  Pt4+  4.0
  O2-  -2.0
loop_
 _atom_site_type_symbol
 _atom_site_label
 _atom_site_symmetry_multiplicity
 _atom_site_fract_x
 _atom_site_fract_y
 _atom_site_fract_z
 _atom_site_occupancy
  Mg2+  Mg0  1  0.00000000  0.25000000  0.85645000  1
  Mg2+  Mg1  1  0.00000000  0.75000000  0.14355000  1
  Mg2+  Mg2  1  0.75000000  0.25000000  0.25000000  1
  Mg2+  Mg3  1  0.25000000  0.25000000  0.25000000  1
  Mg2+  Mg4  1  0.50000000  0.75000000  0.35645000  1
  Mg2+  Mg5  1  0.50000000  0.25000000  0.64355000  1
  Mg2+  Mg6  1  0.25000000  0.75000000  0.75000000  1
  Mg2+  Mg7  1  0.75000000  0.75000000  0.75000000  1
  Pt4+  Pt8  1  0.50000000  0.00000000  0.00000000  1
  Pt4+  Pt9  1  0.50000000  0.50000000  0.00000000  1
  Pt4+  Pt10  1  0.00000000  0.50000000  0.50000000  1
  Pt4+  Pt11  1  0.00000000  0.00000000  0.50000000  1
  O2-  O12  1  0.27383600  0.75000000  0.99730400  1
  O2-  O13  1  0.72616400  0.75000000  0.99730400  1
  O2-  O14  1  0.50000000  0.97970000  0.76210100  1
  O2-  O15  1  0.00000000  0.02030000  0.26210100  1
  O2-  O16  1  0.00000000  0.97970000  0.73789900  1
  O2-  O17  1  0.27383600  0.25000000  0.00269600  1
  O2-  O18  1  0.50000000  0.02030000  0.23789900  1
  O2-  O19  1  0.72616400  0.25000000  0.00269600  1
  O2-  O20  1  0.77383600  0.25000000  0.49730400  1
  O2-  O21  1  0.22616400  0.25000000  0.49730400  1
  O2-  O22  1  0.00000000  0.47970000  0.26210100  1
  O2-  O23  1  0.50000000  0.52030000  0.76210100  1
  O2-  O24  1  0.50000000  0.47970000  0.23789900  1
  O2-  O25  1  0.77383600  0.75000000  0.50269600  1
  O2-  O26  1  0.00000000  0.52030000  0.73789900  1
  O2-  O27  1  0.22616400  0.75000000  0.50269600  1
