# generated using pymatgen
data_Mg2SnO4
_symmetry_space_group_name_H-M   'P 1'
_cell_length_a   6.12300800
_cell_length_b   6.30008400
_cell_length_c   8.69475600
_cell_angle_alpha   90.00000000
_cell_angle_beta   90.00000000
_cell_angle_gamma   90.00000000
_symmetry_Int_Tables_number   1
_chemical_formula_structural   Mg2SnO4
_chemical_formula_sum   'Mg8 Sn4 O16'
_cell_volume   335.40425344
_cell_formula_units_Z   4
loop_
 _symmetry_equiv_pos_site_id
 _symmetry_equiv_pos_as_xyz
  1  'x, y, z'
loop_
 _atom_type_symbol
 _atom_type_oxidation_number
  Mg2+  2.0
  Sn4+  4.0
  O2-  -2.0
loop_
 _atom_site_type_symbol
 _atom_site_label
 _atom_site_symmetry_multiplicity
 _atom_site_fract_x
 _atom_site_fract_y
 _atom_site_fract_z
 _atom_site_occupancy
  Mg2+  Mg0  1  0.50000000  0.25000000  0.36236900  1
  Mg2+  Mg1  1  0.50000000  0.75000000  0.63763100  1
  Mg2+  Mg2  1  0.75000000  0.75000000  0.25000000  1
  Mg2+  Mg3  1  0.25000000  0.75000000  0.25000000  1
  Mg2+  Mg4  1  0.00000000  0.75000000  0.86236900  1
  Mg2+  Mg5  1  0.00000000  0.25000000  0.13763100  1
  Mg2+  Mg6  1  0.25000000  0.25000000  0.75000000  1
  Mg2+  Mg7  1  0.75000000  0.25000000  0.75000000  1
  Sn4+  Sn8  1  0.00000000  0.00000000  0.50000000  1
  Sn4+  Sn9  1  0.50000000  0.00000000  0.00000000  1
  Sn4+  Sn10  1  0.50000000  0.50000000  0.00000000  1
  Sn4+  Sn11  1  0.00000000  0.50000000  0.50000000  1
  O2-  O12  1  0.76561850  0.75000000  0.49627150  1
  O2-  O13  1  0.00000000  0.98162800  0.26373200  1
  O2-  O14  1  0.23438150  0.75000000  0.49627150  1
  O2-  O15  1  0.50000000  0.01837200  0.76373200  1
  O2-  O16  1  0.50000000  0.98162800  0.23626800  1
  O2-  O17  1  0.00000000  0.01837200  0.73626800  1
  O2-  O18  1  0.76561850  0.25000000  0.50372850  1
  O2-  O19  1  0.23438150  0.25000000  0.50372850  1
  O2-  O20  1  0.26561850  0.25000000  0.99627150  1
  O2-  O21  1  0.50000000  0.48162800  0.76373200  1
  O2-  O22  1  0.73438150  0.25000000  0.99627150  1
  O2-  O23  1  0.00000000  0.51837200  0.26373200  1
  O2-  O24  1  0.00000000  0.48162800  0.73626800  1
  O2-  O25  1  0.50000000  0.51837200  0.23626800  1
  O2-  O26  1  0.26561850  0.75000000  0.00372850  1
  O2-  O27  1  0.73438150  0.75000000  0.00372850  1
