# generated using pymatgen
data_Mg3(BO3)2
_symmetry_space_group_name_H-M   'P 1'
_cell_length_a   4.54288100
_cell_length_b   5.45811900
_cell_length_c   8.51042300
_cell_angle_alpha   90.00000000
_cell_angle_beta   90.00000000
_cell_angle_gamma   90.00000000
_symmetry_Int_Tables_number   1
_chemical_formula_structural   Mg3(BO3)2
_chemical_formula_sum   'Mg6 B4 O12'
_cell_volume   211.02091774
_cell_formula_units_Z   2
loop_
 _symmetry_equiv_pos_site_id
 _symmetry_equiv_pos_as_xyz
  1  'x, y, z'
loop_
 _atom_type_symbol
 _atom_type_oxidation_number
  Mg2+  2.0
  B3+  3.0
  O2-  -2.0
loop_
 _atom_site_type_symbol
 _atom_site_label
 _atom_site_symmetry_multiplicity
 _atom_site_fract_x
 _atom_site_fract_y
 _atom_site_fract_z
 _atom_site_occupancy
  Mg2+  Mg0  1  0.00000000  0.50000000  0.81312000  1
  Mg2+  Mg1  1  0.50000000  0.00000000  0.68688000  1
  Mg2+  Mg2  1  0.00000000  0.50000000  0.18688000  1
  Mg2+  Mg3  1  0.50000000  0.00000000  0.31312000  1
  Mg2+  Mg4  1  0.50000000  0.50000000  0.50000000  1
  Mg2+  Mg5  1  0.00000000  0.00000000  0.00000000  1
  B3+  B6  1  0.04554000  0.24448200  0.50000000  1
  B3+  B7  1  0.45446000  0.74448200  0.00000000  1
  B3+  B8  1  0.95446000  0.75551800  0.50000000  1
  B3+  B9  1  0.54554000  0.25551800  0.00000000  1
  O2-  O10  1  0.29881200  0.79545200  0.13861600  1
  O2-  O11  1  0.79881200  0.70454800  0.36138400  1
  O2-  O12  1  0.29881200  0.79545200  0.86138400  1
  O2-  O13  1  0.70118800  0.20454800  0.86138400  1
  O2-  O14  1  0.79881200  0.70454800  0.63861600  1
  O2-  O15  1  0.20118800  0.29545200  0.63861600  1
  O2-  O16  1  0.25089100  0.32072400  0.00000000  1
  O2-  O17  1  0.75089100  0.17927600  0.50000000  1
  O2-  O18  1  0.24910900  0.82072400  0.50000000  1
  O2-  O19  1  0.74910900  0.67927600  0.00000000  1
  O2-  O20  1  0.70118800  0.20454800  0.13861600  1
  O2-  O21  1  0.20118800  0.29545200  0.36138400  1
