# generated using pymatgen
data_Mg4Nb2O9
_symmetry_space_group_name_H-M   'P 1'
_cell_length_a   5.22545854
_cell_length_b   5.22545854
_cell_length_c   14.19895800
_cell_angle_alpha   90.00000000
_cell_angle_beta   90.00000000
_cell_angle_gamma   120.00000000
_symmetry_Int_Tables_number   1
_chemical_formula_structural   Mg4Nb2O9
_chemical_formula_sum   'Mg8 Nb4 O18'
_cell_volume   335.76538320
_cell_formula_units_Z   2
loop_
 _symmetry_equiv_pos_site_id
 _symmetry_equiv_pos_as_xyz
  1  'x, y, z'
loop_
 _atom_type_symbol
 _atom_type_oxidation_number
  Mg2+  2.0
  Nb5+  5.0
  O2-  -2.0
loop_
 _atom_site_type_symbol
 _atom_site_label
 _atom_site_symmetry_multiplicity
 _atom_site_fract_x
 _atom_site_fract_y
 _atom_site_fract_z
 _atom_site_occupancy
  Mg2+  Mg0  1  0.66666667  0.33333333  0.51659400  1
  Mg2+  Mg1  1  0.33333333  0.66666667  0.98340600  1
  Mg2+  Mg2  1  0.33333333  0.66666667  0.48340600  1
  Mg2+  Mg3  1  0.66666667  0.33333333  0.01659400  1
  Mg2+  Mg4  1  0.66666667  0.33333333  0.30780700  1
  Mg2+  Mg5  1  0.33333333  0.66666667  0.19219300  1
  Mg2+  Mg6  1  0.33333333  0.66666667  0.69219300  1
  Mg2+  Mg7  1  0.66666667  0.33333333  0.80780700  1
  Nb5+  Nb8  1  0.00000000  0.00000000  0.35800900  1
  Nb5+  Nb9  1  0.00000000  0.00000000  0.14199100  1
  Nb5+  Nb10  1  0.00000000  0.00000000  0.64199100  1
  Nb5+  Nb11  1  0.00000000  0.00000000  0.85800900  1
  O2-  O12  1  0.34756700  0.02899000  0.91558400  1
  O2-  O13  1  0.97101000  0.31857700  0.91558400  1
  O2-  O14  1  0.68142300  0.65243300  0.91558400  1
  O2-  O15  1  0.31857700  0.97101000  0.58441600  1
  O2-  O16  1  0.65243300  0.68142300  0.58441600  1
  O2-  O17  1  0.02899000  0.34756700  0.58441600  1
  O2-  O18  1  0.65243300  0.97101000  0.08441600  1
  O2-  O19  1  0.02899000  0.68142300  0.08441600  1
  O2-  O20  1  0.31857700  0.34756700  0.08441600  1
  O2-  O21  1  0.68142300  0.02899000  0.41558400  1
  O2-  O22  1  0.34756700  0.31857700  0.41558400  1
  O2-  O23  1  0.97101000  0.65243300  0.41558400  1
  O2-  O24  1  0.29019600  0.00000000  0.25000000  1
  O2-  O25  1  0.00000000  0.29019600  0.25000000  1
  O2-  O26  1  0.70980400  0.70980400  0.25000000  1
  O2-  O27  1  0.70980400  0.00000000  0.75000000  1
  O2-  O28  1  0.00000000  0.70980400  0.75000000  1
  O2-  O29  1  0.29019600  0.29019600  0.75000000  1
