# generated using pymatgen
data_Mg4Ta2O9
_symmetry_space_group_name_H-M   'P 1'
_cell_length_a   5.21199245
_cell_length_b   5.21199245
_cell_length_c   14.18669400
_cell_angle_alpha   90.00000000
_cell_angle_beta   90.00000000
_cell_angle_gamma   120.00000000
_symmetry_Int_Tables_number   1
_chemical_formula_structural   Mg4Ta2O9
_chemical_formula_sum   'Mg8 Ta4 O18'
_cell_volume   333.74855147
_cell_formula_units_Z   2
loop_
 _symmetry_equiv_pos_site_id
 _symmetry_equiv_pos_as_xyz
  1  'x, y, z'
loop_
 _atom_type_symbol
 _atom_type_oxidation_number
  Mg2+  2.0
  Ta5+  5.0
  O2-  -2.0
loop_
 _atom_site_type_symbol
 _atom_site_label
 _atom_site_symmetry_multiplicity
 _atom_site_fract_x
 _atom_site_fract_y
 _atom_site_fract_z
 _atom_site_occupancy
  Mg2+  Mg0  1  0.33333333  0.66666667  0.01651000  1
  Mg2+  Mg1  1  0.66666667  0.33333333  0.48349000  1
  Mg2+  Mg2  1  0.66666667  0.33333333  0.98349000  1
  Mg2+  Mg3  1  0.33333333  0.66666667  0.51651000  1
  Mg2+  Mg4  1  0.33333333  0.66666667  0.80892600  1
  Mg2+  Mg5  1  0.66666667  0.33333333  0.69107400  1
  Mg2+  Mg6  1  0.66666667  0.33333333  0.19107400  1
  Mg2+  Mg7  1  0.33333333  0.66666667  0.30892600  1
  Ta5+  Ta8  1  0.00000000  0.00000000  0.35711600  1
  Ta5+  Ta9  1  0.00000000  0.00000000  0.14288400  1
  Ta5+  Ta10  1  0.00000000  0.00000000  0.64288400  1
  Ta5+  Ta11  1  0.00000000  0.00000000  0.85711600  1
  O2-  O12  1  0.28814900  0.28814900  0.75000000  1
  O2-  O13  1  0.00000000  0.71185100  0.75000000  1
  O2-  O14  1  0.71185100  0.00000000  0.75000000  1
  O2-  O15  1  0.71185100  0.71185100  0.25000000  1
  O2-  O16  1  0.00000000  0.28814900  0.25000000  1
  O2-  O17  1  0.28814900  0.00000000  0.25000000  1
  O2-  O18  1  0.68292300  0.65411300  0.58472200  1
  O2-  O19  1  0.34588700  0.02881000  0.58472200  1
  O2-  O20  1  0.97119000  0.31707700  0.58472200  1
  O2-  O21  1  0.02881000  0.34588700  0.91527800  1
  O2-  O22  1  0.31707700  0.97119000  0.91527800  1
  O2-  O23  1  0.65411300  0.68292300  0.91527800  1
  O2-  O24  1  0.34588700  0.31707700  0.08472200  1
  O2-  O25  1  0.68292300  0.02881000  0.08472200  1
  O2-  O26  1  0.97119000  0.65411300  0.08472200  1
  O2-  O27  1  0.02881000  0.68292300  0.41527800  1
  O2-  O28  1  0.65411300  0.97119000  0.41527800  1
  O2-  O29  1  0.31707700  0.34588700  0.41527800  1
