# generated using pymatgen
data_MgGeO3
_symmetry_space_group_name_H-M   'P 1'
_cell_length_a   9.72906800
_cell_length_b   9.06389600
_cell_length_c   5.23244092
_cell_angle_alpha   90.00000000
_cell_angle_beta   101.13639335
_cell_angle_gamma   90.00000000
_symmetry_Int_Tables_number   1
_chemical_formula_structural   MgGeO3
_chemical_formula_sum   'Mg8 Ge8 O24'
_cell_volume   452.72536398
_cell_formula_units_Z   8
loop_
 _symmetry_equiv_pos_site_id
 _symmetry_equiv_pos_as_xyz
  1  'x, y, z'
loop_
 _atom_type_symbol
 _atom_type_oxidation_number
  Mg2+  2.0
  Ge4+  4.0
  O2-  -2.0
loop_
 _atom_site_type_symbol
 _atom_site_label
 _atom_site_symmetry_multiplicity
 _atom_site_fract_x
 _atom_site_fract_y
 _atom_site_fract_z
 _atom_site_occupancy
  Mg2+  Mg0  1  0.00000000  0.90646600  0.25000000  1
  Mg2+  Mg1  1  0.00000000  0.09353400  0.75000000  1
  Mg2+  Mg2  1  0.00000000  0.27023600  0.25000000  1
  Mg2+  Mg3  1  0.00000000  0.72976400  0.75000000  1
  Mg2+  Mg4  1  0.50000000  0.40646600  0.25000000  1
  Mg2+  Mg5  1  0.50000000  0.59353400  0.75000000  1
  Mg2+  Mg6  1  0.50000000  0.77023600  0.25000000  1
  Mg2+  Mg7  1  0.50000000  0.22976400  0.75000000  1
  Ge4+  Ge8  1  0.79963250  0.59478450  0.21142000  1
  Ge4+  Ge9  1  0.20036750  0.59478450  0.28858000  1
  Ge4+  Ge10  1  0.20036750  0.40521550  0.78858000  1
  Ge4+  Ge11  1  0.79963250  0.40521550  0.71142000  1
  Ge4+  Ge12  1  0.29963250  0.09478450  0.21142000  1
  Ge4+  Ge13  1  0.70036750  0.09478450  0.28858000  1
  Ge4+  Ge14  1  0.70036750  0.90521550  0.78858000  1
  Ge4+  Ge15  1  0.29963250  0.90521550  0.71142000  1
  O2-  O16  1  0.86022600  0.43028400  0.40357600  1
  O2-  O17  1  0.13977400  0.43028400  0.09642400  1
  O2-  O18  1  0.13977400  0.56971600  0.59642400  1
  O2-  O19  1  0.86022600  0.56971600  0.90357600  1
  O2-  O20  1  0.88323550  0.25746550  0.88203200  1
  O2-  O21  1  0.11676450  0.25746550  0.61796800  1
  O2-  O22  1  0.11676450  0.74253450  0.11796800  1
  O2-  O23  1  0.88323550  0.74253450  0.38203200  1
  O2-  O24  1  0.61524850  0.59061550  0.13191200  1
  O2-  O25  1  0.38475150  0.59061550  0.36808800  1
  O2-  O26  1  0.38475150  0.40938450  0.86808800  1
  O2-  O27  1  0.61524850  0.40938450  0.63191200  1
  O2-  O28  1  0.36022600  0.93028400  0.40357600  1
  O2-  O29  1  0.63977400  0.93028400  0.09642400  1
  O2-  O30  1  0.63977400  0.06971600  0.59642400  1
  O2-  O31  1  0.36022600  0.06971600  0.90357600  1
  O2-  O32  1  0.38323550  0.75746550  0.88203200  1
  O2-  O33  1  0.61676450  0.75746550  0.61796800  1
  O2-  O34  1  0.61676450  0.24253450  0.11796800  1
  O2-  O35  1  0.38323550  0.24253450  0.38203200  1
  O2-  O36  1  0.11524850  0.09061550  0.13191200  1
  O2-  O37  1  0.88475150  0.09061550  0.36808800  1
  O2-  O38  1  0.88475150  0.90938450  0.86808800  1
  O2-  O39  1  0.11524850  0.90938450  0.63191200  1
