# generated using pymatgen
data_MgTi2O5
_symmetry_space_group_name_H-M   'P 1'
_cell_length_a   3.75971200
_cell_length_b   9.82417400
_cell_length_c   10.12874200
_cell_angle_alpha   90.00000000
_cell_angle_beta   90.00000000
_cell_angle_gamma   90.00000000
_symmetry_Int_Tables_number   1
_chemical_formula_structural   MgTi2O5
_chemical_formula_sum   'Mg4 Ti8 O20'
_cell_volume   374.11587164
_cell_formula_units_Z   4
loop_
 _symmetry_equiv_pos_site_id
 _symmetry_equiv_pos_as_xyz
  1  'x, y, z'
loop_
 _atom_type_symbol
 _atom_type_oxidation_number
  Mg2+  2.0
  Ti4+  4.0
  O2-  -2.0
loop_
 _atom_site_type_symbol
 _atom_site_label
 _atom_site_symmetry_multiplicity
 _atom_site_fract_x
 _atom_site_fract_y
 _atom_site_fract_z
 _atom_site_occupancy
  Mg2+  Mg0  1  0.00000000  0.19563500  0.25000000  1
  Mg2+  Mg1  1  0.50000000  0.30436500  0.75000000  1
  Mg2+  Mg2  1  0.50000000  0.69563500  0.25000000  1
  Mg2+  Mg3  1  0.00000000  0.80436500  0.75000000  1
  Ti4+  Ti4  1  0.50000000  0.36725300  0.06739400  1
  Ti4+  Ti5  1  0.00000000  0.13274700  0.93260600  1
  Ti4+  Ti6  1  0.50000000  0.36725300  0.43260600  1
  Ti4+  Ti7  1  0.00000000  0.13274700  0.56739400  1
  Ti4+  Ti8  1  0.00000000  0.86725300  0.06739400  1
  Ti4+  Ti9  1  0.50000000  0.63274700  0.93260600  1
  Ti4+  Ti10  1  0.00000000  0.86725300  0.43260600  1
  Ti4+  Ti11  1  0.50000000  0.63274700  0.56739400  1
  O2-  O12  1  0.00000000  0.31349000  0.06252700  1
  O2-  O13  1  0.50000000  0.18651000  0.93747300  1
  O2-  O14  1  0.50000000  0.18651000  0.56252700  1
  O2-  O15  1  0.00000000  0.31349000  0.43747300  1
  O2-  O16  1  0.00000000  0.04608100  0.11290500  1
  O2-  O17  1  0.50000000  0.45391900  0.88709500  1
  O2-  O18  1  0.50000000  0.28355000  0.25000000  1
  O2-  O19  1  0.00000000  0.21645000  0.75000000  1
  O2-  O20  1  0.00000000  0.04608100  0.38709500  1
  O2-  O21  1  0.50000000  0.45391900  0.61290500  1
  O2-  O22  1  0.50000000  0.81349000  0.06252700  1
  O2-  O23  1  0.00000000  0.68651000  0.93747300  1
  O2-  O24  1  0.00000000  0.68651000  0.56252700  1
  O2-  O25  1  0.50000000  0.81349000  0.43747300  1
  O2-  O26  1  0.50000000  0.54608100  0.11290500  1
  O2-  O27  1  0.00000000  0.95391900  0.88709500  1
  O2-  O28  1  0.00000000  0.78355000  0.25000000  1
  O2-  O29  1  0.50000000  0.71645000  0.75000000  1
  O2-  O30  1  0.50000000  0.54608100  0.38709500  1
  O2-  O31  1  0.00000000  0.95391900  0.61290500  1
