# generated using pymatgen
data_MgV2O6
_symmetry_space_group_name_H-M   'P 1'
_cell_length_a   9.76733200
_cell_length_b   3.53531400
_cell_length_c   7.05547246
_cell_angle_alpha   90.00000000
_cell_angle_beta   106.11641583
_cell_angle_gamma   90.00000000
_symmetry_Int_Tables_number   1
_chemical_formula_structural   MgV2O6
_chemical_formula_sum   'Mg2 V4 O12'
_cell_volume   234.05486975
_cell_formula_units_Z   2
loop_
 _symmetry_equiv_pos_site_id
 _symmetry_equiv_pos_as_xyz
  1  'x, y, z'
loop_
 _atom_type_symbol
 _atom_type_oxidation_number
  Mg2+  2.0
  V5+  5.0
  O2-  -2.0
loop_
 _atom_site_type_symbol
 _atom_site_label
 _atom_site_symmetry_multiplicity
 _atom_site_fract_x
 _atom_site_fract_y
 _atom_site_fract_z
 _atom_site_occupancy
  Mg2+  Mg0  1  0.00000000  0.00000000  0.50000000  1
  Mg2+  Mg1  1  0.50000000  0.50000000  0.50000000  1
  V5+  V2  1  0.72134500  0.50000000  0.17661300  1
  V5+  V3  1  0.77865500  0.00000000  0.82338700  1
  V5+  V4  1  0.22134500  0.00000000  0.17661300  1
  V5+  V5  1  0.27865500  0.50000000  0.82338700  1
  O2-  O6  1  0.71305900  0.00000000  0.08261200  1
  O2-  O7  1  0.78694100  0.50000000  0.91738800  1
  O2-  O8  1  0.92381500  0.00000000  0.74043700  1
  O2-  O9  1  0.86687100  0.50000000  0.37686000  1
  O2-  O10  1  0.57618500  0.50000000  0.25956300  1
  O2-  O11  1  0.63312900  0.00000000  0.62314000  1
  O2-  O12  1  0.21305900  0.50000000  0.08261200  1
  O2-  O13  1  0.28694100  0.00000000  0.91738800  1
  O2-  O14  1  0.42381500  0.50000000  0.74043700  1
  O2-  O15  1  0.36687100  0.00000000  0.37686000  1
  O2-  O16  1  0.07618500  0.00000000  0.25956300  1
  O2-  O17  1  0.13312900  0.50000000  0.62314000  1
