# generated using pymatgen
data_MgZn2(AsO4)2
_symmetry_space_group_name_H-M   'P 1'
_cell_length_a   5.35266700
_cell_length_b   8.58507100
_cell_length_c   9.02978875
_cell_angle_alpha   90.00000000
_cell_angle_beta   119.76467497
_cell_angle_gamma   90.00000000
_symmetry_Int_Tables_number   1
_chemical_formula_structural   MgZn2(AsO4)2
_chemical_formula_sum   'Mg2 Zn4 As4 O16'
_cell_volume   360.20297995
_cell_formula_units_Z   2
loop_
 _symmetry_equiv_pos_site_id
 _symmetry_equiv_pos_as_xyz
  1  'x, y, z'
loop_
 _atom_type_symbol
 _atom_type_oxidation_number
  Mg2+  2.0
  Zn2+  2.0
  As5+  5.0
  O2-  -2.0
loop_
 _atom_site_type_symbol
 _atom_site_label
 _atom_site_symmetry_multiplicity
 _atom_site_fract_x
 _atom_site_fract_y
 _atom_site_fract_z
 _atom_site_occupancy
  Mg2+  Mg0  1  0.00000000  0.00000000  0.00000000  1
  Mg2+  Mg1  1  0.00000000  0.50000000  0.50000000  1
  Zn2+  Zn2  1  0.98174400  0.63914700  0.88829100  1
  Zn2+  Zn3  1  0.01825600  0.36085300  0.11170900  1
  Zn2+  Zn4  1  0.01825600  0.13914700  0.61170900  1
  Zn2+  Zn5  1  0.98174400  0.86085300  0.38829100  1
  As5+  As6  1  0.64863200  0.30661000  0.69327500  1
  As5+  As7  1  0.35136800  0.69339000  0.30672500  1
  As5+  As8  1  0.35136800  0.80661000  0.80672500  1
  As5+  As9  1  0.64863200  0.19339000  0.19327500  1
  O2-  O10  1  0.72687500  0.36303000  0.53958800  1
  O2-  O11  1  0.27312500  0.63697000  0.46041200  1
  O2-  O12  1  0.27312500  0.86303000  0.96041200  1
  O2-  O13  1  0.72687500  0.13697000  0.03958800  1
  O2-  O14  1  0.79330800  0.43283800  0.86409500  1
  O2-  O15  1  0.20669200  0.56716200  0.13590500  1
  O2-  O16  1  0.20669200  0.93283800  0.63590500  1
  O2-  O17  1  0.79330800  0.06716200  0.36409500  1
  O2-  O18  1  0.82329200  0.12825600  0.75491000  1
  O2-  O19  1  0.17670800  0.87174400  0.24509000  1
  O2-  O20  1  0.17670800  0.62825600  0.74509000  1
  O2-  O21  1  0.82329200  0.37174400  0.25491000  1
  O2-  O22  1  0.28422600  0.30352500  0.61550500  1
  O2-  O23  1  0.71577400  0.69647500  0.38449500  1
  O2-  O24  1  0.71577400  0.80352500  0.88449500  1
  O2-  O25  1  0.28422600  0.19647500  0.11550500  1
