# generated using pymatgen
data_MoPbO4
_symmetry_space_group_name_H-M   'P 1'
_cell_length_a   5.52420800
_cell_length_b   5.52420800
_cell_length_c   12.33968800
_cell_angle_alpha   90.00000000
_cell_angle_beta   90.00000000
_cell_angle_gamma   90.00000000
_symmetry_Int_Tables_number   1
_chemical_formula_structural   MoPbO4
_chemical_formula_sum   'Mo4 Pb4 O16'
_cell_volume   376.56870423
_cell_formula_units_Z   4
loop_
 _symmetry_equiv_pos_site_id
 _symmetry_equiv_pos_as_xyz
  1  'x, y, z'
loop_
 _atom_type_symbol
 _atom_type_oxidation_number
  Mo6+  6.0
  Pb2+  2.0
  O2-  -2.0
loop_
 _atom_site_type_symbol
 _atom_site_label
 _atom_site_symmetry_multiplicity
 _atom_site_fract_x
 _atom_site_fract_y
 _atom_site_fract_z
 _atom_site_occupancy
  Mo6+  Mo0  1  0.50000000  0.00000000  0.25000000  1
  Mo6+  Mo1  1  0.50000000  0.50000000  0.00000000  1
  Mo6+  Mo2  1  0.00000000  0.50000000  0.75000000  1
  Mo6+  Mo3  1  0.00000000  0.00000000  0.50000000  1
  Pb2+  Pb4  1  0.00000000  0.50000000  0.25000000  1
  Pb2+  Pb5  1  0.00000000  0.00000000  0.00000000  1
  Pb2+  Pb6  1  0.50000000  0.00000000  0.75000000  1
  Pb2+  Pb7  1  0.50000000  0.50000000  0.50000000  1
  O2-  O8  1  0.63563450  0.23685050  0.33062950  1
  O2-  O9  1  0.36436550  0.76314950  0.33062950  1
  O2-  O10  1  0.73685050  0.36436550  0.08062950  1
  O2-  O11  1  0.26314950  0.63563450  0.08062950  1
  O2-  O12  1  0.86436550  0.76314950  0.41937050  1
  O2-  O13  1  0.13563450  0.23685050  0.41937050  1
  O2-  O14  1  0.26314950  0.13563450  0.16937050  1
  O2-  O15  1  0.73685050  0.86436550  0.16937050  1
  O2-  O16  1  0.13563450  0.73685050  0.83062950  1
  O2-  O17  1  0.86436550  0.26314950  0.83062950  1
  O2-  O18  1  0.23685050  0.86436550  0.58062950  1
  O2-  O19  1  0.76314950  0.13563450  0.58062950  1
  O2-  O20  1  0.36436550  0.26314950  0.91937050  1
  O2-  O21  1  0.63563450  0.73685050  0.91937050  1
  O2-  O22  1  0.76314950  0.63563450  0.66937050  1
  O2-  O23  1  0.23685050  0.36436550  0.66937050  1
