# generated using pymatgen
data_Na2MgGeO4
_symmetry_space_group_name_H-M   'P 1'
_cell_length_a   5.42316500
_cell_length_b   5.69247500
_cell_length_c   9.01757027
_cell_angle_alpha   90.00000000
_cell_angle_beta   126.88400307
_cell_angle_gamma   90.00000000
_symmetry_Int_Tables_number   1
_chemical_formula_structural   Na2MgGeO4
_chemical_formula_sum   'Na4 Mg2 Ge2 O8'
_cell_volume   222.66567007
_cell_formula_units_Z   2
loop_
 _symmetry_equiv_pos_site_id
 _symmetry_equiv_pos_as_xyz
  1  'x, y, z'
loop_
 _atom_type_symbol
 _atom_type_oxidation_number
  Na+  1.0
  Mg2+  2.0
  Ge4+  4.0
  O2-  -2.0
loop_
 _atom_site_type_symbol
 _atom_site_label
 _atom_site_symmetry_multiplicity
 _atom_site_fract_x
 _atom_site_fract_y
 _atom_site_fract_z
 _atom_site_occupancy
  Na+  Na0  1  0.75414700  0.67288100  0.19349200  1
  Na+  Na1  1  0.75414700  0.32711900  0.69349200  1
  Na+  Na2  1  0.50258700  0.81871900  0.43892900  1
  Na+  Na3  1  0.50258700  0.18128100  0.93892900  1
  Mg2+  Mg4  1  0.01873700  0.18603200  0.44401600  1
  Mg2+  Mg5  1  0.01873700  0.81396800  0.94401600  1
  Ge4+  Ge6  1  0.26914900  0.31324800  0.19114200  1
  Ge4+  Ge7  1  0.26914900  0.68675200  0.69114200  1
  O2-  O8  1  0.32919300  0.20479200  0.39544700  1
  O2-  O9  1  0.32919300  0.79520800  0.89544700  1
  O2-  O10  1  0.16161000  0.61577800  0.16288400  1
  O2-  O11  1  0.16161000  0.38422200  0.66288400  1
  O2-  O12  1  0.62259200  0.29054900  0.21930100  1
  O2-  O13  1  0.62259200  0.70945100  0.71930100  1
  O2-  O14  1  0.98282000  0.14961100  0.98991700  1
  O2-  O15  1  0.98282000  0.85038900  0.48991700  1
