# generated using pymatgen
data_Na2MgSiO4
_symmetry_space_group_name_H-M   'P 1'
_cell_length_a   5.33561100
_cell_length_b   5.57139400
_cell_length_c   8.82391934
_cell_angle_alpha   90.00000000
_cell_angle_beta   127.02211613
_cell_angle_gamma   90.00000000
_symmetry_Int_Tables_number   1
_chemical_formula_structural   Na2MgSiO4
_chemical_formula_sum   'Na4 Mg2 Si2 O8'
_cell_volume   209.42658109
_cell_formula_units_Z   2
loop_
 _symmetry_equiv_pos_site_id
 _symmetry_equiv_pos_as_xyz
  1  'x, y, z'
loop_
 _atom_type_symbol
 _atom_type_oxidation_number
  Na+  1.0
  Mg2+  2.0
  Si4+  4.0
  O2-  -2.0
loop_
 _atom_site_type_symbol
 _atom_site_label
 _atom_site_symmetry_multiplicity
 _atom_site_fract_x
 _atom_site_fract_y
 _atom_site_fract_z
 _atom_site_occupancy
  Na+  Na0  1  0.26206200  0.66714900  0.75044700  1
  Na+  Na1  1  0.51371800  0.81698500  0.50542500  1
  Na+  Na2  1  0.26206200  0.33285100  0.25044700  1
  Na+  Na3  1  0.51371800  0.18301500  0.00542500  1
  Mg2+  Mg4  1  0.99844100  0.81407000  0.99964700  1
  Mg2+  Mg5  1  0.99844100  0.18593000  0.49964700  1
  Si4+  Si6  1  0.74728700  0.68740700  0.25237600  1
  Si4+  Si7  1  0.74728700  0.31259300  0.75237600  1
  O2-  O8  1  0.69835400  0.21029900  0.56013500  1
  O2-  O9  1  0.69835400  0.78970100  0.06013500  1
  O2-  O10  1  0.01763200  0.15490000  0.94308400  1
  O2-  O11  1  0.01763200  0.84510000  0.44308400  1
  O2-  O12  1  0.41123900  0.71264800  0.22237500  1
  O2-  O13  1  0.85178700  0.40067900  0.28296100  1
  O2-  O14  1  0.85178700  0.59932100  0.78296100  1
  O2-  O15  1  0.41123900  0.28735200  0.72237500  1
