# generated using pymatgen
data_Na2MoO4
_symmetry_space_group_name_H-M   'P 1'
_cell_length_a   9.24462600
_cell_length_b   9.24462600
_cell_length_c   9.24462600
_cell_angle_alpha   90.00000000
_cell_angle_beta   90.00000000
_cell_angle_gamma   90.00000000
_symmetry_Int_Tables_number   1
_chemical_formula_structural   Na2MoO4
_chemical_formula_sum   'Na16 Mo8 O32'
_cell_volume   790.07448764
_cell_formula_units_Z   8
loop_
 _symmetry_equiv_pos_site_id
 _symmetry_equiv_pos_as_xyz
  1  'x, y, z'
loop_
 _atom_type_symbol
 _atom_type_oxidation_number
  Na+  1.0
  Mo6+  6.0
  O2-  -2.0
loop_
 _atom_site_type_symbol
 _atom_site_label
 _atom_site_symmetry_multiplicity
 _atom_site_fract_x
 _atom_site_fract_y
 _atom_site_fract_z
 _atom_site_occupancy
  Na+  Na0  1  0.12500000  0.12500000  0.12500000  1
  Na+  Na1  1  0.62500000  0.87500000  0.37500000  1
  Na+  Na2  1  0.87500000  0.87500000  0.12500000  1
  Na+  Na3  1  0.37500000  0.12500000  0.37500000  1
  Na+  Na4  1  0.12500000  0.62500000  0.62500000  1
  Na+  Na5  1  0.62500000  0.37500000  0.87500000  1
  Na+  Na6  1  0.87500000  0.37500000  0.62500000  1
  Na+  Na7  1  0.37500000  0.62500000  0.87500000  1
  Na+  Na8  1  0.62500000  0.12500000  0.62500000  1
  Na+  Na9  1  0.12500000  0.87500000  0.87500000  1
  Na+  Na10  1  0.37500000  0.87500000  0.62500000  1
  Na+  Na11  1  0.87500000  0.12500000  0.87500000  1
  Na+  Na12  1  0.62500000  0.62500000  0.12500000  1
  Na+  Na13  1  0.12500000  0.37500000  0.37500000  1
  Na+  Na14  1  0.37500000  0.37500000  0.12500000  1
  Na+  Na15  1  0.87500000  0.62500000  0.37500000  1
  Mo6+  Mo16  1  0.00000000  0.00000000  0.50000000  1
  Mo6+  Mo17  1  0.25000000  0.75000000  0.25000000  1
  Mo6+  Mo18  1  0.00000000  0.50000000  0.00000000  1
  Mo6+  Mo19  1  0.25000000  0.25000000  0.75000000  1
  Mo6+  Mo20  1  0.50000000  0.00000000  0.00000000  1
  Mo6+  Mo21  1  0.75000000  0.75000000  0.75000000  1
  Mo6+  Mo22  1  0.50000000  0.50000000  0.50000000  1
  Mo6+  Mo23  1  0.75000000  0.25000000  0.25000000  1
  O2-  O24  1  0.36271400  0.86271400  0.36271400  1
  O2-  O25  1  0.38728600  0.11271400  0.11271400  1
  O2-  O26  1  0.11271400  0.11271400  0.38728600  1
  O2-  O27  1  0.11271400  0.38728600  0.11271400  1
  O2-  O28  1  0.63728600  0.13728600  0.36271400  1
  O2-  O29  1  0.13728600  0.86271400  0.13728600  1
  O2-  O30  1  0.38728600  0.38728600  0.38728600  1
  O2-  O31  1  0.86271400  0.13728600  0.13728600  1
  O2-  O32  1  0.36271400  0.36271400  0.86271400  1
  O2-  O33  1  0.38728600  0.61271400  0.61271400  1
  O2-  O34  1  0.11271400  0.61271400  0.88728600  1
  O2-  O35  1  0.11271400  0.88728600  0.61271400  1
  O2-  O36  1  0.63728600  0.63728600  0.86271400  1
  O2-  O37  1  0.13728600  0.36271400  0.63728600  1
  O2-  O38  1  0.38728600  0.88728600  0.88728600  1
  O2-  O39  1  0.86271400  0.63728600  0.63728600  1
  O2-  O40  1  0.86271400  0.86271400  0.86271400  1
  O2-  O41  1  0.88728600  0.11271400  0.61271400  1
  O2-  O42  1  0.61271400  0.11271400  0.88728600  1
  O2-  O43  1  0.61271400  0.38728600  0.61271400  1
  O2-  O44  1  0.13728600  0.13728600  0.86271400  1
  O2-  O45  1  0.63728600  0.86271400  0.63728600  1
  O2-  O46  1  0.88728600  0.38728600  0.88728600  1
  O2-  O47  1  0.36271400  0.13728600  0.63728600  1
  O2-  O48  1  0.86271400  0.36271400  0.36271400  1
  O2-  O49  1  0.88728600  0.61271400  0.11271400  1
  O2-  O50  1  0.61271400  0.61271400  0.38728600  1
  O2-  O51  1  0.61271400  0.88728600  0.11271400  1
  O2-  O52  1  0.13728600  0.63728600  0.36271400  1
  O2-  O53  1  0.63728600  0.36271400  0.13728600  1
  O2-  O54  1  0.88728600  0.88728600  0.38728600  1
  O2-  O55  1  0.36271400  0.63728600  0.13728600  1
