# generated using pymatgen
data_Na2PbO3
_symmetry_space_group_name_H-M   'P 1'
_cell_length_a   5.81318400
_cell_length_b   10.08173200
_cell_length_c   11.35829092
_cell_angle_alpha   90.00000000
_cell_angle_beta   99.97486870
_cell_angle_gamma   90.00000000
_symmetry_Int_Tables_number   1
_chemical_formula_structural   Na2PbO3
_chemical_formula_sum   'Na16 Pb8 O24'
_cell_volume   655.61247821
_cell_formula_units_Z   8
loop_
 _symmetry_equiv_pos_site_id
 _symmetry_equiv_pos_as_xyz
  1  'x, y, z'
loop_
 _atom_type_symbol
 _atom_type_oxidation_number
  Na+  1.0
  Pb4+  4.0
  O2-  -2.0
loop_
 _atom_site_type_symbol
 _atom_site_label
 _atom_site_symmetry_multiplicity
 _atom_site_fract_x
 _atom_site_fract_y
 _atom_site_fract_z
 _atom_site_occupancy
  Na+  Na0  1  0.23959150  0.57910150  0.49951200  1
  Na+  Na1  1  0.26040850  0.92089850  0.50048800  1
  Na+  Na2  1  0.76040850  0.57910150  0.00048800  1
  Na+  Na3  1  0.73959150  0.92089850  0.99951200  1
  Na+  Na4  1  0.50000000  0.91575800  0.25000000  1
  Na+  Na5  1  0.00000000  0.58424200  0.75000000  1
  Na+  Na6  1  0.25000000  0.75000000  0.00000000  1
  Na+  Na7  1  0.75000000  0.75000000  0.50000000  1
  Na+  Na8  1  0.73959150  0.07910150  0.49951200  1
  Na+  Na9  1  0.76040850  0.42089850  0.50048800  1
  Na+  Na10  1  0.26040850  0.07910150  0.00048800  1
  Na+  Na11  1  0.23959150  0.42089850  0.99951200  1
  Na+  Na12  1  0.00000000  0.41575800  0.25000000  1
  Na+  Na13  1  0.50000000  0.08424200  0.75000000  1
  Na+  Na14  1  0.75000000  0.25000000  0.00000000  1
  Na+  Na15  1  0.25000000  0.25000000  0.50000000  1
  Pb4+  Pb16  1  0.00000000  0.74982800  0.25000000  1
  Pb4+  Pb17  1  0.50000000  0.75017200  0.75000000  1
  Pb4+  Pb18  1  0.50000000  0.58254000  0.25000000  1
  Pb4+  Pb19  1  0.00000000  0.91746000  0.75000000  1
  Pb4+  Pb20  1  0.50000000  0.24982800  0.25000000  1
  Pb4+  Pb21  1  0.00000000  0.25017200  0.75000000  1
  Pb4+  Pb22  1  0.00000000  0.08254000  0.25000000  1
  Pb4+  Pb23  1  0.50000000  0.41746000  0.75000000  1
  O2-  O24  1  0.39840750  0.58366150  0.86118900  1
  O2-  O25  1  0.10159250  0.91633850  0.13881100  1
  O2-  O26  1  0.60159250  0.58366150  0.63881100  1
  O2-  O27  1  0.89840750  0.91633850  0.36118900  1
  O2-  O28  1  0.14149050  0.59610750  0.13777600  1
  O2-  O29  1  0.35850950  0.90389250  0.86222400  1
  O2-  O30  1  0.85850950  0.59610750  0.36222400  1
  O2-  O31  1  0.64149050  0.90389250  0.63777600  1
  O2-  O32  1  0.35665650  0.73514650  0.36074800  1
  O2-  O33  1  0.14334350  0.76485350  0.63925200  1
  O2-  O34  1  0.64334350  0.73514650  0.13925200  1
  O2-  O35  1  0.85665650  0.76485350  0.86074800  1
  O2-  O36  1  0.89840750  0.08366150  0.86118900  1
  O2-  O37  1  0.60159250  0.41633850  0.13881100  1
  O2-  O38  1  0.10159250  0.08366150  0.63881100  1
  O2-  O39  1  0.39840750  0.41633850  0.36118900  1
  O2-  O40  1  0.64149050  0.09610750  0.13777600  1
  O2-  O41  1  0.85850950  0.40389250  0.86222400  1
  O2-  O42  1  0.35850950  0.09610750  0.36222400  1
  O2-  O43  1  0.14149050  0.40389250  0.63777600  1
  O2-  O44  1  0.85665650  0.23514650  0.36074800  1
  O2-  O45  1  0.64334350  0.26485350  0.63925200  1
  O2-  O46  1  0.14334350  0.23514650  0.13925200  1
  O2-  O47  1  0.35665650  0.26485350  0.86074800  1
