# generated using pymatgen
data_Na2ReO3
_symmetry_space_group_name_H-M   'P 1'
_cell_length_a   5.63981391
_cell_length_b   5.63981391
_cell_length_c   12.33150900
_cell_angle_alpha   90.00000000
_cell_angle_beta   90.00000000
_cell_angle_gamma   120.00000000
_symmetry_Int_Tables_number   1
_chemical_formula_structural   Na2ReO3
_chemical_formula_sum   'Na8 Re4 O12'
_cell_volume   339.68502806
_cell_formula_units_Z   4
loop_
 _symmetry_equiv_pos_site_id
 _symmetry_equiv_pos_as_xyz
  1  'x, y, z'
loop_
 _atom_type_symbol
 _atom_type_oxidation_number
  Na+  1.0
  Re4+  4.0
  O2-  -2.0
loop_
 _atom_site_type_symbol
 _atom_site_label
 _atom_site_symmetry_multiplicity
 _atom_site_fract_x
 _atom_site_fract_y
 _atom_site_fract_z
 _atom_site_occupancy
  Na+  Na0  1  0.66666667  0.33333333  0.25000000  1
  Na+  Na1  1  0.33333333  0.66666667  0.75000000  1
  Na+  Na2  1  0.33333333  0.66666667  0.25000000  1
  Na+  Na3  1  0.66666667  0.33333333  0.75000000  1
  Na+  Na4  1  0.66666667  0.33333333  0.00000000  1
  Na+  Na5  1  0.33333333  0.66666667  0.00000000  1
  Na+  Na6  1  0.33333333  0.66666667  0.50000000  1
  Na+  Na7  1  0.66666667  0.33333333  0.50000000  1
  Re4+  Re8  1  0.00000000  0.00000000  0.15530800  1
  Re4+  Re9  1  0.00000000  0.00000000  0.84469200  1
  Re4+  Re10  1  0.00000000  0.00000000  0.65530800  1
  Re4+  Re11  1  0.00000000  0.00000000  0.34469200  1
  O2-  O12  1  0.00000000  0.68135600  0.12408000  1
  O2-  O13  1  0.00000000  0.31864400  0.87592000  1
  O2-  O14  1  0.31864400  0.31864400  0.12408000  1
  O2-  O15  1  0.00000000  0.31864400  0.62408000  1
  O2-  O16  1  0.31864400  0.31864400  0.37592000  1
  O2-  O17  1  0.68135600  0.68135600  0.87592000  1
  O2-  O18  1  0.00000000  0.68135600  0.37592000  1
  O2-  O19  1  0.68135600  0.68135600  0.62408000  1
  O2-  O20  1  0.68135600  0.00000000  0.12408000  1
  O2-  O21  1  0.31864400  0.00000000  0.87592000  1
  O2-  O22  1  0.31864400  0.00000000  0.62408000  1
  O2-  O23  1  0.68135600  0.00000000  0.37592000  1
