# generated using pymatgen
data_Na2WO4
_symmetry_space_group_name_H-M   'P 1'
_cell_length_a   9.28102400
_cell_length_b   9.28102400
_cell_length_c   9.28102400
_cell_angle_alpha   90.00000000
_cell_angle_beta   90.00000000
_cell_angle_gamma   90.00000000
_symmetry_Int_Tables_number   1
_chemical_formula_structural   Na2WO4
_chemical_formula_sum   'Na16 W8 O32'
_cell_volume   799.44333692
_cell_formula_units_Z   8
loop_
 _symmetry_equiv_pos_site_id
 _symmetry_equiv_pos_as_xyz
  1  'x, y, z'
loop_
 _atom_type_symbol
 _atom_type_oxidation_number
  Na+  1.0
  W6+  6.0
  O2-  -2.0
loop_
 _atom_site_type_symbol
 _atom_site_label
 _atom_site_symmetry_multiplicity
 _atom_site_fract_x
 _atom_site_fract_y
 _atom_site_fract_z
 _atom_site_occupancy
  Na+  Na0  1  0.12500000  0.62500000  0.12500000  1
  Na+  Na1  1  0.12500000  0.87500000  0.37500000  1
  Na+  Na2  1  0.37500000  0.87500000  0.12500000  1
  Na+  Na3  1  0.37500000  0.62500000  0.37500000  1
  Na+  Na4  1  0.12500000  0.12500000  0.62500000  1
  Na+  Na5  1  0.12500000  0.37500000  0.87500000  1
  Na+  Na6  1  0.37500000  0.37500000  0.62500000  1
  Na+  Na7  1  0.37500000  0.12500000  0.87500000  1
  Na+  Na8  1  0.62500000  0.62500000  0.62500000  1
  Na+  Na9  1  0.62500000  0.87500000  0.87500000  1
  Na+  Na10  1  0.87500000  0.87500000  0.62500000  1
  Na+  Na11  1  0.87500000  0.62500000  0.87500000  1
  Na+  Na12  1  0.62500000  0.12500000  0.12500000  1
  Na+  Na13  1  0.62500000  0.37500000  0.37500000  1
  Na+  Na14  1  0.87500000  0.37500000  0.12500000  1
  Na+  Na15  1  0.87500000  0.12500000  0.37500000  1
  W6+  W16  1  0.50000000  0.00000000  0.50000000  1
  W6+  W17  1  0.25000000  0.25000000  0.25000000  1
  W6+  W18  1  0.50000000  0.50000000  0.00000000  1
  W6+  W19  1  0.25000000  0.75000000  0.75000000  1
  W6+  W20  1  0.00000000  0.00000000  0.00000000  1
  W6+  W21  1  0.75000000  0.25000000  0.75000000  1
  W6+  W22  1  0.00000000  0.50000000  0.50000000  1
  W6+  W23  1  0.75000000  0.75000000  0.25000000  1
  O2-  O24  1  0.13655067  0.36344933  0.13655067  1
  O2-  O25  1  0.61344933  0.11344933  0.38655067  1
  O2-  O26  1  0.38655067  0.88655067  0.38655067  1
  O2-  O27  1  0.88655067  0.11344933  0.11344933  1
  O2-  O28  1  0.36344933  0.36344933  0.36344933  1
  O2-  O29  1  0.36344933  0.13655067  0.13655067  1
  O2-  O30  1  0.11344933  0.88655067  0.11344933  1
  O2-  O31  1  0.13655067  0.13655067  0.36344933  1
  O2-  O32  1  0.13655067  0.86344933  0.63655067  1
  O2-  O33  1  0.61344933  0.61344933  0.88655067  1
  O2-  O34  1  0.38655067  0.38655067  0.88655067  1
  O2-  O35  1  0.88655067  0.61344933  0.61344933  1
  O2-  O36  1  0.36344933  0.86344933  0.86344933  1
  O2-  O37  1  0.36344933  0.63655067  0.63655067  1
  O2-  O38  1  0.11344933  0.38655067  0.61344933  1
  O2-  O39  1  0.13655067  0.63655067  0.86344933  1
  O2-  O40  1  0.63655067  0.36344933  0.63655067  1
  O2-  O41  1  0.11344933  0.11344933  0.88655067  1
  O2-  O42  1  0.88655067  0.88655067  0.88655067  1
  O2-  O43  1  0.38655067  0.11344933  0.61344933  1
  O2-  O44  1  0.86344933  0.36344933  0.86344933  1
  O2-  O45  1  0.86344933  0.13655067  0.63655067  1
  O2-  O46  1  0.61344933  0.88655067  0.61344933  1
  O2-  O47  1  0.63655067  0.13655067  0.86344933  1
  O2-  O48  1  0.63655067  0.86344933  0.13655067  1
  O2-  O49  1  0.11344933  0.61344933  0.38655067  1
  O2-  O50  1  0.88655067  0.38655067  0.38655067  1
  O2-  O51  1  0.38655067  0.61344933  0.11344933  1
  O2-  O52  1  0.86344933  0.86344933  0.36344933  1
  O2-  O53  1  0.86344933  0.63655067  0.13655067  1
  O2-  O54  1  0.61344933  0.38655067  0.11344933  1
  O2-  O55  1  0.63655067  0.63655067  0.36344933  1
