# generated using pymatgen
data_Na2Zn(SiO3)2
_symmetry_space_group_name_H-M   'P 1'
_cell_length_a   7.21377400
_cell_length_b   7.54810200
_cell_length_c   21.65831400
_cell_angle_alpha   90.00000000
_cell_angle_beta   90.00000000
_cell_angle_gamma   90.00000000
_symmetry_Int_Tables_number   1
_chemical_formula_structural   Na2Zn(SiO3)2
_chemical_formula_sum   'Na16 Zn8 Si16 O48'
_cell_volume   1179.30173718
_cell_formula_units_Z   8
loop_
 _symmetry_equiv_pos_site_id
 _symmetry_equiv_pos_as_xyz
  1  'x, y, z'
loop_
 _atom_type_symbol
 _atom_type_oxidation_number
  Na+  1.0
  Zn2+  2.0
  Si4+  4.0
  O2-  -2.0
loop_
 _atom_site_type_symbol
 _atom_site_label
 _atom_site_symmetry_multiplicity
 _atom_site_fract_x
 _atom_site_fract_y
 _atom_site_fract_z
 _atom_site_occupancy
  Na+  Na0  1  0.51644300  0.47683100  0.67238500  1
  Na+  Na1  1  0.48355700  0.47683100  0.32761500  1
  Na+  Na2  1  0.73355700  0.22683100  0.42238500  1
  Na+  Na3  1  0.26644300  0.22683100  0.57761500  1
  Na+  Na4  1  0.51644300  0.97683100  0.17238500  1
  Na+  Na5  1  0.48355700  0.97683100  0.82761500  1
  Na+  Na6  1  0.73355700  0.72683100  0.92238500  1
  Na+  Na7  1  0.26644300  0.72683100  0.07761500  1
  Na+  Na8  1  0.01644300  0.97683100  0.67238500  1
  Na+  Na9  1  0.98355700  0.97683100  0.32761500  1
  Na+  Na10  1  0.23355700  0.72683100  0.42238500  1
  Na+  Na11  1  0.76644300  0.72683100  0.57761500  1
  Na+  Na12  1  0.01644300  0.47683100  0.17238500  1
  Na+  Na13  1  0.98355700  0.47683100  0.82761500  1
  Na+  Na14  1  0.23355700  0.22683100  0.92238500  1
  Na+  Na15  1  0.76644300  0.22683100  0.07761500  1
  Zn2+  Zn16  1  0.75000000  0.24856900  0.25000000  1
  Zn2+  Zn17  1  0.50000000  0.49856900  0.50000000  1
  Zn2+  Zn18  1  0.75000000  0.74856900  0.75000000  1
  Zn2+  Zn19  1  0.50000000  0.99856900  0.00000000  1
  Zn2+  Zn20  1  0.25000000  0.74856900  0.25000000  1
  Zn2+  Zn21  1  0.00000000  0.99856900  0.50000000  1
  Zn2+  Zn22  1  0.25000000  0.24856900  0.75000000  1
  Zn2+  Zn23  1  0.00000000  0.49856900  0.00000000  1
  Si4+  Si24  1  0.03641950  0.52326900  0.66675150  1
  Si4+  Si25  1  0.96358050  0.52326900  0.33324850  1
  Si4+  Si26  1  0.71358050  0.77326900  0.41675150  1
  Si4+  Si27  1  0.28641950  0.77326900  0.58324850  1
  Si4+  Si28  1  0.03641950  0.02326900  0.16675150  1
  Si4+  Si29  1  0.96358050  0.02326900  0.83324850  1
  Si4+  Si30  1  0.71358050  0.27326900  0.91675150  1
  Si4+  Si31  1  0.28641950  0.27326900  0.08324850  1
  Si4+  Si32  1  0.53641950  0.02326900  0.66675150  1
  Si4+  Si33  1  0.46358050  0.02326900  0.33324850  1
  Si4+  Si34  1  0.21358050  0.27326900  0.41675150  1
  Si4+  Si35  1  0.78641950  0.27326900  0.58324850  1
  Si4+  Si36  1  0.53641950  0.52326900  0.16675150  1
  Si4+  Si37  1  0.46358050  0.52326900  0.83324850  1
  Si4+  Si38  1  0.21358050  0.77326900  0.91675150  1
  Si4+  Si39  1  0.78641950  0.77326900  0.08324850  1
  O2-  O40  1  0.96883250  0.60324150  0.73205600  1
  O2-  O41  1  0.03116750  0.60324150  0.26794400  1
  O2-  O42  1  0.28116750  0.35324150  0.48205600  1
  O2-  O43  1  0.71883250  0.35324150  0.51794400  1
  O2-  O44  1  0.35057500  0.94138950  0.62955850  1
  O2-  O45  1  0.64942500  0.94138950  0.37044150  1
  O2-  O46  1  0.89942500  0.69138950  0.37955850  1
  O2-  O47  1  0.10057500  0.69138950  0.62044150  1
  O2-  O48  1  0.20252100  0.37888450  0.67184950  1
  O2-  O49  1  0.79747900  0.37888450  0.32815050  1
  O2-  O50  1  0.45252100  0.62888450  0.57815050  1
  O2-  O51  1  0.54747900  0.62888450  0.42184950  1
  O2-  O52  1  0.96883250  0.10324150  0.23205600  1
  O2-  O53  1  0.03116750  0.10324150  0.76794400  1
  O2-  O54  1  0.28116750  0.85324150  0.98205600  1
  O2-  O55  1  0.71883250  0.85324150  0.01794400  1
  O2-  O56  1  0.35057500  0.44138950  0.12955850  1
  O2-  O57  1  0.64942500  0.44138950  0.87044150  1
  O2-  O58  1  0.89942500  0.19138950  0.87955850  1
  O2-  O59  1  0.10057500  0.19138950  0.12044150  1
  O2-  O60  1  0.20252100  0.87888450  0.17184950  1
  O2-  O61  1  0.79747900  0.87888450  0.82815050  1
  O2-  O62  1  0.45252100  0.12888450  0.07815050  1
  O2-  O63  1  0.54747900  0.12888450  0.92184950  1
  O2-  O64  1  0.46883250  0.10324150  0.73205600  1
  O2-  O65  1  0.53116750  0.10324150  0.26794400  1
  O2-  O66  1  0.78116750  0.85324150  0.48205600  1
  O2-  O67  1  0.21883250  0.85324150  0.51794400  1
  O2-  O68  1  0.85057500  0.44138950  0.62955850  1
  O2-  O69  1  0.14942500  0.44138950  0.37044150  1
  O2-  O70  1  0.39942500  0.19138950  0.37955850  1
  O2-  O71  1  0.60057500  0.19138950  0.62044150  1
  O2-  O72  1  0.70252100  0.87888450  0.67184950  1
  O2-  O73  1  0.29747900  0.87888450  0.32815050  1
  O2-  O74  1  0.95252100  0.12888450  0.57815050  1
  O2-  O75  1  0.04747900  0.12888450  0.42184950  1
  O2-  O76  1  0.46883250  0.60324150  0.23205600  1
  O2-  O77  1  0.53116750  0.60324150  0.76794400  1
  O2-  O78  1  0.78116750  0.35324150  0.98205600  1
  O2-  O79  1  0.21883250  0.35324150  0.01794400  1
  O2-  O80  1  0.85057500  0.94138950  0.12955850  1
  O2-  O81  1  0.14942500  0.94138950  0.87044150  1
  O2-  O82  1  0.39942500  0.69138950  0.87955850  1
  O2-  O83  1  0.60057500  0.69138950  0.12044150  1
  O2-  O84  1  0.70252100  0.37888450  0.17184950  1
  O2-  O85  1  0.29747900  0.37888450  0.82815050  1
  O2-  O86  1  0.95252100  0.62888450  0.07815050  1
  O2-  O87  1  0.04747900  0.62888450  0.92184950  1
