# generated using pymatgen
data_Na2ZnGeO4
_symmetry_space_group_name_H-M   'P 1'
_cell_length_a   5.42778400
_cell_length_b   5.68000300
_cell_length_c   9.00819256
_cell_angle_alpha   90.00000000
_cell_angle_beta   126.92751659
_cell_angle_gamma   90.00000000
_symmetry_Int_Tables_number   1
_chemical_formula_structural   Na2ZnGeO4
_chemical_formula_sum   'Na4 Zn2 Ge2 O8'
_cell_volume   222.00914696
_cell_formula_units_Z   2
loop_
 _symmetry_equiv_pos_site_id
 _symmetry_equiv_pos_as_xyz
  1  'x, y, z'
loop_
 _atom_type_symbol
 _atom_type_oxidation_number
  Na+  1.0
  Zn2+  2.0
  Ge4+  4.0
  O2-  -2.0
loop_
 _atom_site_type_symbol
 _atom_site_label
 _atom_site_symmetry_multiplicity
 _atom_site_fract_x
 _atom_site_fract_y
 _atom_site_fract_z
 _atom_site_occupancy
  Na+  Na0  1  0.51038700  0.17804600  0.00342500  1
  Na+  Na1  1  0.25756400  0.67591400  0.74816200  1
  Na+  Na2  1  0.51038700  0.82195400  0.50342500  1
  Na+  Na3  1  0.25756400  0.32408600  0.24816200  1
  Zn2+  Zn4  1  0.99644600  0.81292800  0.99795900  1
  Zn2+  Zn5  1  0.99644600  0.18707200  0.49795900  1
  Ge4+  Ge6  1  0.74550100  0.31432900  0.75061900  1
  Ge4+  Ge7  1  0.74550100  0.68567100  0.25061900  1
  O2-  O8  1  0.39389800  0.70569500  0.22526800  1
  O2-  O9  1  0.39389800  0.29430500  0.72526800  1
  O2-  O10  1  0.67990600  0.20453800  0.54455200  1
  O2-  O11  1  0.67990600  0.79546200  0.04455200  1
  O2-  O12  1  0.03457800  0.15287000  0.95371700  1
  O2-  O13  1  0.85572000  0.38299300  0.27629800  1
  O2-  O14  1  0.85572000  0.61700700  0.77629800  1
  O2-  O15  1  0.03457800  0.84713000  0.45371700  1
