# generated using pymatgen
data_Na3Ca2TaO6
_symmetry_space_group_name_H-M   'P 1'
_cell_length_a   6.65632200
_cell_length_b   9.57976800
_cell_length_c   19.79087000
_cell_angle_alpha   90.00000000
_cell_angle_beta   90.00000000
_cell_angle_gamma   90.00000000
_symmetry_Int_Tables_number   1
_chemical_formula_structural   Na3Ca2TaO6
_chemical_formula_sum   'Na24 Ca16 Ta8 O48'
_cell_volume   1261.98502200
_cell_formula_units_Z   8
loop_
 _symmetry_equiv_pos_site_id
 _symmetry_equiv_pos_as_xyz
  1  'x, y, z'
loop_
 _atom_type_symbol
 _atom_type_oxidation_number
  Na+  1.0
  Ca2+  2.0
  Ta5+  5.0
  O2-  -2.0
loop_
 _atom_site_type_symbol
 _atom_site_label
 _atom_site_symmetry_multiplicity
 _atom_site_fract_x
 _atom_site_fract_y
 _atom_site_fract_z
 _atom_site_occupancy
  Na+  Na0  1  0.00000000  0.00000000  0.00000000  1
  Na+  Na1  1  0.75000000  0.75000000  0.08633000  1
  Na+  Na2  1  0.50000000  0.00000000  0.33633000  1
  Na+  Na3  1  0.00000000  0.00000000  0.16367000  1
  Na+  Na4  1  0.75000000  0.75000000  0.25000000  1
  Na+  Na5  1  0.75000000  0.75000000  0.41367000  1
  Na+  Na6  1  0.00000000  0.50000000  0.50000000  1
  Na+  Na7  1  0.75000000  0.25000000  0.58633000  1
  Na+  Na8  1  0.50000000  0.50000000  0.83633000  1
  Na+  Na9  1  0.00000000  0.50000000  0.66367000  1
  Na+  Na10  1  0.75000000  0.25000000  0.75000000  1
  Na+  Na11  1  0.75000000  0.25000000  0.91367000  1
  Na+  Na12  1  0.50000000  0.00000000  0.50000000  1
  Na+  Na13  1  0.25000000  0.75000000  0.58633000  1
  Na+  Na14  1  0.00000000  0.00000000  0.83633000  1
  Na+  Na15  1  0.50000000  0.00000000  0.66367000  1
  Na+  Na16  1  0.25000000  0.75000000  0.75000000  1
  Na+  Na17  1  0.25000000  0.75000000  0.91367000  1
  Na+  Na18  1  0.50000000  0.50000000  0.00000000  1
  Na+  Na19  1  0.25000000  0.25000000  0.08633000  1
  Na+  Na20  1  0.00000000  0.50000000  0.33633000  1
  Na+  Na21  1  0.50000000  0.50000000  0.16367000  1
  Na+  Na22  1  0.25000000  0.25000000  0.25000000  1
  Na+  Na23  1  0.25000000  0.25000000  0.41367000  1
  Ca2+  Ca24  1  0.75000000  0.25000000  0.08056800  1
  Ca2+  Ca25  1  0.75000000  0.25000000  0.41943200  1
  Ca2+  Ca26  1  0.50000000  0.00000000  0.16943200  1
  Ca2+  Ca27  1  0.00000000  0.00000000  0.33056800  1
  Ca2+  Ca28  1  0.75000000  0.75000000  0.58056800  1
  Ca2+  Ca29  1  0.75000000  0.75000000  0.91943200  1
  Ca2+  Ca30  1  0.50000000  0.50000000  0.66943200  1
  Ca2+  Ca31  1  0.00000000  0.50000000  0.83056800  1
  Ca2+  Ca32  1  0.25000000  0.25000000  0.58056800  1
  Ca2+  Ca33  1  0.25000000  0.25000000  0.91943200  1
  Ca2+  Ca34  1  0.00000000  0.00000000  0.66943200  1
  Ca2+  Ca35  1  0.50000000  0.00000000  0.83056800  1
  Ca2+  Ca36  1  0.25000000  0.75000000  0.08056800  1
  Ca2+  Ca37  1  0.25000000  0.75000000  0.41943200  1
  Ca2+  Ca38  1  0.00000000  0.50000000  0.16943200  1
  Ca2+  Ca39  1  0.50000000  0.50000000  0.33056800  1
  Ta5+  Ta40  1  0.75000000  0.25000000  0.25000000  1
  Ta5+  Ta41  1  0.50000000  0.00000000  0.00000000  1
  Ta5+  Ta42  1  0.75000000  0.75000000  0.75000000  1
  Ta5+  Ta43  1  0.50000000  0.50000000  0.50000000  1
  Ta5+  Ta44  1  0.25000000  0.25000000  0.75000000  1
  Ta5+  Ta45  1  0.00000000  0.00000000  0.50000000  1
  Ta5+  Ta46  1  0.25000000  0.75000000  0.25000000  1
  Ta5+  Ta47  1  0.00000000  0.50000000  0.00000000  1
  O2-  O48  1  0.50000000  0.78805500  0.00000000  1
  O2-  O49  1  0.50000000  0.21194500  0.00000000  1
  O2-  O50  1  0.75000000  0.46194500  0.25000000  1
  O2-  O51  1  0.75000000  0.03805500  0.25000000  1
  O2-  O52  1  0.21496200  0.99543500  0.42641700  1
  O2-  O53  1  0.71496200  0.00456500  0.07358300  1
  O2-  O54  1  0.28503800  0.99543500  0.07358300  1
  O2-  O55  1  0.78503800  0.00456500  0.42641700  1
  O2-  O56  1  0.96496200  0.24543500  0.32358300  1
  O2-  O57  1  0.53503800  0.24543500  0.17641700  1
  O2-  O58  1  0.46496200  0.75456500  0.17641700  1
  O2-  O59  1  0.03503800  0.75456500  0.32358300  1
  O2-  O60  1  0.50000000  0.28805500  0.50000000  1
  O2-  O61  1  0.50000000  0.71194500  0.50000000  1
  O2-  O62  1  0.75000000  0.96194500  0.75000000  1
  O2-  O63  1  0.75000000  0.53805500  0.75000000  1
  O2-  O64  1  0.21496200  0.49543500  0.92641700  1
  O2-  O65  1  0.71496200  0.50456500  0.57358300  1
  O2-  O66  1  0.28503800  0.49543500  0.57358300  1
  O2-  O67  1  0.78503800  0.50456500  0.92641700  1
  O2-  O68  1  0.96496200  0.74543500  0.82358300  1
  O2-  O69  1  0.53503800  0.74543500  0.67641700  1
  O2-  O70  1  0.46496200  0.25456500  0.67641700  1
  O2-  O71  1  0.03503800  0.25456500  0.82358300  1
  O2-  O72  1  0.00000000  0.78805500  0.50000000  1
  O2-  O73  1  0.00000000  0.21194500  0.50000000  1
  O2-  O74  1  0.25000000  0.46194500  0.75000000  1
  O2-  O75  1  0.25000000  0.03805500  0.75000000  1
  O2-  O76  1  0.71496200  0.99543500  0.92641700  1
  O2-  O77  1  0.21496200  0.00456500  0.57358300  1
  O2-  O78  1  0.78503800  0.99543500  0.57358300  1
  O2-  O79  1  0.28503800  0.00456500  0.92641700  1
  O2-  O80  1  0.46496200  0.24543500  0.82358300  1
  O2-  O81  1  0.03503800  0.24543500  0.67641700  1
  O2-  O82  1  0.96496200  0.75456500  0.67641700  1
  O2-  O83  1  0.53503800  0.75456500  0.82358300  1
  O2-  O84  1  0.00000000  0.28805500  0.00000000  1
  O2-  O85  1  0.00000000  0.71194500  0.00000000  1
  O2-  O86  1  0.25000000  0.96194500  0.25000000  1
  O2-  O87  1  0.25000000  0.53805500  0.25000000  1
  O2-  O88  1  0.71496200  0.49543500  0.42641700  1
  O2-  O89  1  0.21496200  0.50456500  0.07358300  1
  O2-  O90  1  0.78503800  0.49543500  0.07358300  1
  O2-  O91  1  0.28503800  0.50456500  0.42641700  1
  O2-  O92  1  0.46496200  0.74543500  0.32358300  1
  O2-  O93  1  0.03503800  0.74543500  0.17641700  1
  O2-  O94  1  0.96496200  0.25456500  0.17641700  1
  O2-  O95  1  0.53503800  0.25456500  0.32358300  1
