# generated using pymatgen
data_Na3Ca2BiO6
_symmetry_space_group_name_H-M   'P 1'
_cell_length_a   6.79053800
_cell_length_b   9.74960600
_cell_length_c   20.18602800
_cell_angle_alpha   90.00000000
_cell_angle_beta   90.00000000
_cell_angle_gamma   90.00000000
_symmetry_Int_Tables_number   1
_chemical_formula_structural   Na3Ca2BiO6
_chemical_formula_sum   'Na24 Ca16 Bi8 O48'
_cell_volume   1336.41739733
_cell_formula_units_Z   8
loop_
 _symmetry_equiv_pos_site_id
 _symmetry_equiv_pos_as_xyz
  1  'x, y, z'
loop_
 _atom_type_symbol
 _atom_type_oxidation_number
  Na+  1.0
  Ca2+  2.0
  Bi5+  5.0
  O2-  -2.0
loop_
 _atom_site_type_symbol
 _atom_site_label
 _atom_site_symmetry_multiplicity
 _atom_site_fract_x
 _atom_site_fract_y
 _atom_site_fract_z
 _atom_site_occupancy
  Na+  Na0  1  0.75000000  0.25000000  0.08673300  1
  Na+  Na1  1  0.75000000  0.25000000  0.41326700  1
  Na+  Na2  1  0.50000000  0.00000000  0.16326700  1
  Na+  Na3  1  0.00000000  0.00000000  0.33673300  1
  Na+  Na4  1  0.50000000  0.00000000  0.00000000  1
  Na+  Na5  1  0.75000000  0.25000000  0.25000000  1
  Na+  Na6  1  0.75000000  0.75000000  0.58673300  1
  Na+  Na7  1  0.75000000  0.75000000  0.91326700  1
  Na+  Na8  1  0.50000000  0.50000000  0.66326700  1
  Na+  Na9  1  0.00000000  0.50000000  0.83673300  1
  Na+  Na10  1  0.50000000  0.50000000  0.50000000  1
  Na+  Na11  1  0.75000000  0.75000000  0.75000000  1
  Na+  Na12  1  0.25000000  0.25000000  0.58673300  1
  Na+  Na13  1  0.25000000  0.25000000  0.91326700  1
  Na+  Na14  1  0.00000000  0.00000000  0.66326700  1
  Na+  Na15  1  0.50000000  0.00000000  0.83673300  1
  Na+  Na16  1  0.00000000  0.00000000  0.50000000  1
  Na+  Na17  1  0.25000000  0.25000000  0.75000000  1
  Na+  Na18  1  0.25000000  0.75000000  0.08673300  1
  Na+  Na19  1  0.25000000  0.75000000  0.41326700  1
  Na+  Na20  1  0.00000000  0.50000000  0.16326700  1
  Na+  Na21  1  0.50000000  0.50000000  0.33673300  1
  Na+  Na22  1  0.00000000  0.50000000  0.00000000  1
  Na+  Na23  1  0.25000000  0.75000000  0.25000000  1
  Ca2+  Ca24  1  0.75000000  0.75000000  0.08053700  1
  Ca2+  Ca25  1  0.50000000  0.00000000  0.33053700  1
  Ca2+  Ca26  1  0.75000000  0.75000000  0.41946300  1
  Ca2+  Ca27  1  0.00000000  0.00000000  0.16946300  1
  Ca2+  Ca28  1  0.75000000  0.25000000  0.58053700  1
  Ca2+  Ca29  1  0.50000000  0.50000000  0.83053700  1
  Ca2+  Ca30  1  0.75000000  0.25000000  0.91946300  1
  Ca2+  Ca31  1  0.00000000  0.50000000  0.66946300  1
  Ca2+  Ca32  1  0.25000000  0.75000000  0.58053700  1
  Ca2+  Ca33  1  0.00000000  0.00000000  0.83053700  1
  Ca2+  Ca34  1  0.25000000  0.75000000  0.91946300  1
  Ca2+  Ca35  1  0.50000000  0.00000000  0.66946300  1
  Ca2+  Ca36  1  0.25000000  0.25000000  0.08053700  1
  Ca2+  Ca37  1  0.00000000  0.50000000  0.33053700  1
  Ca2+  Ca38  1  0.25000000  0.25000000  0.41946300  1
  Ca2+  Ca39  1  0.50000000  0.50000000  0.16946300  1
  Bi5+  Bi40  1  0.75000000  0.75000000  0.25000000  1
  Bi5+  Bi41  1  0.00000000  0.00000000  0.00000000  1
  Bi5+  Bi42  1  0.75000000  0.25000000  0.75000000  1
  Bi5+  Bi43  1  0.00000000  0.50000000  0.50000000  1
  Bi5+  Bi44  1  0.25000000  0.75000000  0.75000000  1
  Bi5+  Bi45  1  0.50000000  0.00000000  0.50000000  1
  Bi5+  Bi46  1  0.25000000  0.25000000  0.25000000  1
  Bi5+  Bi47  1  0.50000000  0.50000000  0.00000000  1
  O2-  O48  1  0.52512400  0.74514950  0.17258250  1
  O2-  O49  1  0.97487600  0.74514950  0.32741750  1
  O2-  O50  1  0.02512400  0.25485050  0.32741750  1
  O2-  O51  1  0.27512400  0.00485050  0.42258250  1
  O2-  O52  1  0.50000000  0.72289500  0.00000000  1
  O2-  O53  1  0.77512400  0.99514950  0.07741750  1
  O2-  O54  1  0.75000000  0.52710500  0.25000000  1
  O2-  O55  1  0.75000000  0.97289500  0.25000000  1
  O2-  O56  1  0.72487600  0.99514950  0.42258250  1
  O2-  O57  1  0.22487600  0.00485050  0.07741750  1
  O2-  O58  1  0.47487600  0.25485050  0.17258250  1
  O2-  O59  1  0.50000000  0.27710500  0.00000000  1
  O2-  O60  1  0.52512400  0.24514950  0.67258250  1
  O2-  O61  1  0.97487600  0.24514950  0.82741750  1
  O2-  O62  1  0.02512400  0.75485050  0.82741750  1
  O2-  O63  1  0.27512400  0.50485050  0.92258250  1
  O2-  O64  1  0.50000000  0.22289500  0.50000000  1
  O2-  O65  1  0.77512400  0.49514950  0.57741750  1
  O2-  O66  1  0.75000000  0.02710500  0.75000000  1
  O2-  O67  1  0.75000000  0.47289500  0.75000000  1
  O2-  O68  1  0.72487600  0.49514950  0.92258250  1
  O2-  O69  1  0.22487600  0.50485050  0.57741750  1
  O2-  O70  1  0.47487600  0.75485050  0.67258250  1
  O2-  O71  1  0.50000000  0.77710500  0.50000000  1
  O2-  O72  1  0.02512400  0.74514950  0.67258250  1
  O2-  O73  1  0.47487600  0.74514950  0.82741750  1
  O2-  O74  1  0.52512400  0.25485050  0.82741750  1
  O2-  O75  1  0.77512400  0.00485050  0.92258250  1
  O2-  O76  1  0.00000000  0.72289500  0.50000000  1
  O2-  O77  1  0.27512400  0.99514950  0.57741750  1
  O2-  O78  1  0.25000000  0.52710500  0.75000000  1
  O2-  O79  1  0.25000000  0.97289500  0.75000000  1
  O2-  O80  1  0.22487600  0.99514950  0.92258250  1
  O2-  O81  1  0.72487600  0.00485050  0.57741750  1
  O2-  O82  1  0.97487600  0.25485050  0.67258250  1
  O2-  O83  1  0.00000000  0.27710500  0.50000000  1
  O2-  O84  1  0.02512400  0.24514950  0.17258250  1
  O2-  O85  1  0.47487600  0.24514950  0.32741750  1
  O2-  O86  1  0.52512400  0.75485050  0.32741750  1
  O2-  O87  1  0.77512400  0.50485050  0.42258250  1
  O2-  O88  1  0.00000000  0.22289500  0.00000000  1
  O2-  O89  1  0.27512400  0.49514950  0.07741750  1
  O2-  O90  1  0.25000000  0.02710500  0.25000000  1
  O2-  O91  1  0.25000000  0.47289500  0.25000000  1
  O2-  O92  1  0.22487600  0.49514950  0.42258250  1
  O2-  O93  1  0.72487600  0.50485050  0.07741750  1
  O2-  O94  1  0.97487600  0.75485050  0.17258250  1
  O2-  O95  1  0.00000000  0.77710500  0.00000000  1
