# generated using pymatgen
data_Na3SbO3
_symmetry_space_group_name_H-M   'P 1'
_cell_length_a   9.62816600
_cell_length_b   9.62816600
_cell_length_c   9.62816600
_cell_angle_alpha   90.00000000
_cell_angle_beta   90.00000000
_cell_angle_gamma   90.00000000
_symmetry_Int_Tables_number   1
_chemical_formula_structural   Na3SbO3
_chemical_formula_sum   'Na24 Sb8 O24'
_cell_volume   892.54620574
_cell_formula_units_Z   8
loop_
 _symmetry_equiv_pos_site_id
 _symmetry_equiv_pos_as_xyz
  1  'x, y, z'
loop_
 _atom_type_symbol
 _atom_type_oxidation_number
  Na+  1.0
  Sb3+  3.0
  O2-  -2.0
loop_
 _atom_site_type_symbol
 _atom_site_label
 _atom_site_symmetry_multiplicity
 _atom_site_fract_x
 _atom_site_fract_y
 _atom_site_fract_z
 _atom_site_occupancy
  Na+  Na0  1  0.60324000  0.12207200  0.12207200  1
  Na+  Na1  1  0.12207200  0.12207200  0.60324000  1
  Na+  Na2  1  0.12207200  0.60324000  0.12207200  1
  Na+  Na3  1  0.39676000  0.87792800  0.12207200  1
  Na+  Na4  1  0.39676000  0.12207200  0.87792800  1
  Na+  Na5  1  0.10324000  0.37792800  0.37792800  1
  Na+  Na6  1  0.37792800  0.37792800  0.10324000  1
  Na+  Na7  1  0.87792800  0.12207200  0.39676000  1
  Na+  Na8  1  0.12207200  0.39676000  0.87792800  1
  Na+  Na9  1  0.87792800  0.39676000  0.12207200  1
  Na+  Na10  1  0.37792800  0.10324000  0.37792800  1
  Na+  Na11  1  0.12207200  0.87792800  0.39676000  1
  Na+  Na12  1  0.10324000  0.62207200  0.62207200  1
  Na+  Na13  1  0.62207200  0.62207200  0.10324000  1
  Na+  Na14  1  0.62207200  0.10324000  0.62207200  1
  Na+  Na15  1  0.89676000  0.37792800  0.62207200  1
  Na+  Na16  1  0.89676000  0.62207200  0.37792800  1
  Na+  Na17  1  0.60324000  0.87792800  0.87792800  1
  Na+  Na18  1  0.87792800  0.87792800  0.60324000  1
  Na+  Na19  1  0.37792800  0.62207200  0.89676000  1
  Na+  Na20  1  0.62207200  0.89676000  0.37792800  1
  Na+  Na21  1  0.37792800  0.89676000  0.62207200  1
  Na+  Na22  1  0.87792800  0.60324000  0.87792800  1
  Na+  Na23  1  0.62207200  0.37792800  0.89676000  1
  Sb3+  Sb24  1  0.35485400  0.64514600  0.35485400  1
  Sb3+  Sb25  1  0.35485400  0.35485400  0.64514600  1
  Sb3+  Sb26  1  0.14514600  0.14514600  0.14514600  1
  Sb3+  Sb27  1  0.64514600  0.35485400  0.35485400  1
  Sb3+  Sb28  1  0.85485400  0.14514600  0.85485400  1
  Sb3+  Sb29  1  0.85485400  0.85485400  0.14514600  1
  Sb3+  Sb30  1  0.64514600  0.64514600  0.64514600  1
  Sb3+  Sb31  1  0.14514600  0.85485400  0.85485400  1
  O2-  O32  1  0.12975650  0.35040450  0.12975650  1
  O2-  O33  1  0.35040450  0.12975650  0.12975650  1
  O2-  O34  1  0.12975650  0.12975650  0.35040450  1
  O2-  O35  1  0.12975650  0.87024350  0.64959550  1
  O2-  O36  1  0.87024350  0.64959550  0.12975650  1
  O2-  O37  1  0.12975650  0.64959550  0.87024350  1
  O2-  O38  1  0.37024350  0.85040450  0.37024350  1
  O2-  O39  1  0.87024350  0.12975650  0.64959550  1
  O2-  O40  1  0.64959550  0.12975650  0.87024350  1
  O2-  O41  1  0.37024350  0.37024350  0.85040450  1
  O2-  O42  1  0.85040450  0.37024350  0.37024350  1
  O2-  O43  1  0.64959550  0.87024350  0.12975650  1
  O2-  O44  1  0.62975650  0.85040450  0.62975650  1
  O2-  O45  1  0.85040450  0.62975650  0.62975650  1
  O2-  O46  1  0.62975650  0.62975650  0.85040450  1
  O2-  O47  1  0.62975650  0.37024350  0.14959550  1
  O2-  O48  1  0.37024350  0.14959550  0.62975650  1
  O2-  O49  1  0.62975650  0.14959550  0.37024350  1
  O2-  O50  1  0.87024350  0.35040450  0.87024350  1
  O2-  O51  1  0.37024350  0.62975650  0.14959550  1
  O2-  O52  1  0.14959550  0.62975650  0.37024350  1
  O2-  O53  1  0.87024350  0.87024350  0.35040450  1
  O2-  O54  1  0.35040450  0.87024350  0.87024350  1
  O2-  O55  1  0.14959550  0.37024350  0.62975650  1
