# generated using pymatgen
data_Na4As2O7
_symmetry_space_group_name_H-M   'P 1'
_cell_length_a   6.05535400
_cell_length_b   10.28739400
_cell_length_c   12.52781494
_cell_angle_alpha   90.00000000
_cell_angle_beta   92.73765062
_cell_angle_gamma   90.00000000
_symmetry_Int_Tables_number   1
_chemical_formula_structural   Na4As2O7
_chemical_formula_sum   'Na16 As8 O28'
_cell_volume   779.51468056
_cell_formula_units_Z   4
loop_
 _symmetry_equiv_pos_site_id
 _symmetry_equiv_pos_as_xyz
  1  'x, y, z'
loop_
 _atom_type_symbol
 _atom_type_oxidation_number
  Na+  1.0
  As5+  5.0
  O2-  -2.0
loop_
 _atom_site_type_symbol
 _atom_site_label
 _atom_site_symmetry_multiplicity
 _atom_site_fract_x
 _atom_site_fract_y
 _atom_site_fract_z
 _atom_site_occupancy
  Na+  Na0  1  0.34294050  0.32200650  0.62782500  1
  Na+  Na1  1  0.65705950  0.32200650  0.87217500  1
  Na+  Na2  1  0.65705950  0.67799350  0.37217500  1
  Na+  Na3  1  0.34294050  0.67799350  0.12782500  1
  Na+  Na4  1  0.30920000  0.01397600  0.09510400  1
  Na+  Na5  1  0.69080000  0.01397600  0.40489600  1
  Na+  Na6  1  0.69080000  0.98602400  0.90489600  1
  Na+  Na7  1  0.30920000  0.98602400  0.59510400  1
  Na+  Na8  1  0.84294050  0.82200650  0.62782500  1
  Na+  Na9  1  0.15705950  0.82200650  0.87217500  1
  Na+  Na10  1  0.15705950  0.17799350  0.37217500  1
  Na+  Na11  1  0.84294050  0.17799350  0.12782500  1
  Na+  Na12  1  0.80920000  0.51397600  0.09510400  1
  Na+  Na13  1  0.19080000  0.51397600  0.40489600  1
  Na+  Na14  1  0.19080000  0.48602400  0.90489600  1
  Na+  Na15  1  0.80920000  0.48602400  0.59510400  1
  As5+  As16  1  0.64402500  0.65231500  0.86099700  1
  As5+  As17  1  0.35597500  0.65231500  0.63900300  1
  As5+  As18  1  0.35597500  0.34768500  0.13900300  1
  As5+  As19  1  0.64402500  0.34768500  0.36099700  1
  As5+  As20  1  0.14402500  0.15231500  0.86099700  1
  As5+  As21  1  0.85597500  0.15231500  0.63900300  1
  As5+  As22  1  0.85597500  0.84768500  0.13900300  1
  As5+  As23  1  0.14402500  0.84768500  0.36099700  1
  O2-  O24  1  0.76684900  0.21153100  0.31445800  1
  O2-  O25  1  0.23315100  0.21153100  0.18554200  1
  O2-  O26  1  0.23315100  0.78846900  0.68554200  1
  O2-  O27  1  0.76684900  0.78846900  0.81445800  1
  O2-  O28  1  0.32238550  0.96531350  0.40603500  1
  O2-  O29  1  0.67761450  0.96531350  0.09396500  1
  O2-  O30  1  0.67761450  0.03468650  0.59396500  1
  O2-  O31  1  0.32238550  0.03468650  0.90603500  1
  O2-  O32  1  0.43387000  0.32174800  0.44385100  1
  O2-  O33  1  0.56613000  0.32174800  0.05614900  1
  O2-  O34  1  0.56613000  0.67825200  0.55614900  1
  O2-  O35  1  0.43387000  0.67825200  0.94385100  1
  O2-  O36  1  0.50000000  0.56597400  0.75000000  1
  O2-  O37  1  0.50000000  0.43402600  0.25000000  1
  O2-  O38  1  0.26684900  0.71153100  0.31445800  1
  O2-  O39  1  0.73315100  0.71153100  0.18554200  1
  O2-  O40  1  0.73315100  0.28846900  0.68554200  1
  O2-  O41  1  0.26684900  0.28846900  0.81445800  1
  O2-  O42  1  0.82238550  0.46531350  0.40603500  1
  O2-  O43  1  0.17761450  0.46531350  0.09396500  1
  O2-  O44  1  0.17761450  0.53468650  0.59396500  1
  O2-  O45  1  0.82238550  0.53468650  0.90603500  1
  O2-  O46  1  0.93387000  0.82174800  0.44385100  1
  O2-  O47  1  0.06613000  0.82174800  0.05614900  1
  O2-  O48  1  0.06613000  0.17825200  0.55614900  1
  O2-  O49  1  0.93387000  0.17825200  0.94385100  1
  O2-  O50  1  0.00000000  0.06597400  0.75000000  1
  O2-  O51  1  0.00000000  0.93402600  0.25000000  1
