# generated using pymatgen
data_NaBe4SbO7
_symmetry_space_group_name_H-M   'P 1'
_cell_length_a   5.48765198
_cell_length_b   5.48765198
_cell_length_c   8.94442900
_cell_angle_alpha   90.00000000
_cell_angle_beta   90.00000000
_cell_angle_gamma   120.00000000
_symmetry_Int_Tables_number   1
_chemical_formula_structural   NaBe4SbO7
_chemical_formula_sum   'Na2 Be8 Sb2 O14'
_cell_volume   233.26864976
_cell_formula_units_Z   2
loop_
 _symmetry_equiv_pos_site_id
 _symmetry_equiv_pos_as_xyz
  1  'x, y, z'
loop_
 _atom_type_symbol
 _atom_type_oxidation_number
  Na+  1.0
  Be2+  2.0
  Sb5+  5.0
  O2-  -2.0
loop_
 _atom_site_type_symbol
 _atom_site_label
 _atom_site_symmetry_multiplicity
 _atom_site_fract_x
 _atom_site_fract_y
 _atom_site_fract_z
 _atom_site_occupancy
  Na+  Na0  1  0.33333333  0.66666667  0.62521200  1
  Na+  Na1  1  0.66666667  0.33333333  0.12521200  1
  Be2+  Be2  1  0.16561900  0.33123800  0.31340400  1
  Be2+  Be3  1  0.83438100  0.16561900  0.81340400  1
  Be2+  Be4  1  0.33123800  0.16561900  0.81340400  1
  Be2+  Be5  1  0.83438100  0.66876200  0.81340400  1
  Be2+  Be6  1  0.00000000  0.00000000  0.56080300  1
  Be2+  Be7  1  0.00000000  0.00000000  0.06080300  1
  Be2+  Be8  1  0.16561900  0.83438100  0.31340400  1
  Be2+  Be9  1  0.66876200  0.83438100  0.31340400  1
  Sb5+  Sb10  1  0.33333333  0.66666667  0.00042000  1
  Sb5+  Sb11  1  0.66666667  0.33333333  0.50042000  1
  O2-  O12  1  0.67854500  0.83927250  0.12898500  1
  O2-  O13  1  0.00000000  0.00000000  0.87535400  1
  O2-  O14  1  0.00000000  0.00000000  0.37535400  1
  O2-  O15  1  0.32145500  0.16072750  0.62898500  1
  O2-  O16  1  0.83927250  0.16072750  0.62898500  1
  O2-  O17  1  0.16072750  0.32145500  0.12898500  1
  O2-  O18  1  0.50509500  0.01019000  0.87101600  1
  O2-  O19  1  0.49490500  0.50509500  0.37101600  1
  O2-  O20  1  0.01019000  0.50509500  0.37101600  1
  O2-  O21  1  0.98981000  0.49490500  0.87101600  1
  O2-  O22  1  0.50509500  0.49490500  0.87101600  1
  O2-  O23  1  0.49490500  0.98981000  0.37101600  1
  O2-  O24  1  0.83927250  0.67854500  0.62898500  1
  O2-  O25  1  0.16072750  0.83927250  0.12898500  1
