# generated using pymatgen
data_NaBi(MoO4)2
_symmetry_space_group_name_H-M   'P 1'
_cell_length_a   5.32885600
_cell_length_b   5.32885600
_cell_length_c   11.64897800
_cell_angle_alpha   90.00000000
_cell_angle_beta   90.00000000
_cell_angle_gamma   90.00000000
_symmetry_Int_Tables_number   1
_chemical_formula_structural   NaBi(MoO4)2
_chemical_formula_sum   'Na2 Bi2 Mo4 O16'
_cell_volume   330.79260660
_cell_formula_units_Z   2
loop_
 _symmetry_equiv_pos_site_id
 _symmetry_equiv_pos_as_xyz
  1  'x, y, z'
loop_
 _atom_type_symbol
 _atom_type_oxidation_number
  Na+  1.0
  Bi3+  3.0
  Mo6+  6.0
  O2-  -2.0
loop_
 _atom_site_type_symbol
 _atom_site_label
 _atom_site_symmetry_multiplicity
 _atom_site_fract_x
 _atom_site_fract_y
 _atom_site_fract_z
 _atom_site_occupancy
  Na+  Na0  1  0.00000000  0.50000000  0.25000000  1
  Na+  Na1  1  0.50000000  0.00000000  0.75000000  1
  Bi3+  Bi2  1  0.50000000  0.50000000  0.00000000  1
  Bi3+  Bi3  1  0.00000000  0.00000000  0.50000000  1
  Mo6+  Mo4  1  0.00000000  0.00000000  0.00000000  1
  Mo6+  Mo5  1  0.50000000  0.00000000  0.25000000  1
  Mo6+  Mo6  1  0.50000000  0.50000000  0.50000000  1
  Mo6+  Mo7  1  0.00000000  0.50000000  0.75000000  1
  O2-  O8  1  0.74189350  0.14467050  0.33627250  1
  O2-  O9  1  0.25810650  0.85532950  0.33627250  1
  O2-  O10  1  0.64467050  0.75810650  0.16372750  1
  O2-  O11  1  0.35532950  0.24189350  0.16372750  1
  O2-  O12  1  0.84438000  0.24230900  0.08234800  1
  O2-  O13  1  0.15562000  0.75769100  0.08234800  1
  O2-  O14  1  0.74230900  0.65562000  0.41765200  1
  O2-  O15  1  0.25769100  0.34438000  0.41765200  1
  O2-  O16  1  0.24189350  0.64467050  0.83627250  1
  O2-  O17  1  0.75810650  0.35532950  0.83627250  1
  O2-  O18  1  0.14467050  0.25810650  0.66372750  1
  O2-  O19  1  0.85532950  0.74189350  0.66372750  1
  O2-  O20  1  0.34438000  0.74230900  0.58234800  1
  O2-  O21  1  0.65562000  0.25769100  0.58234800  1
  O2-  O22  1  0.24230900  0.15562000  0.91765200  1
  O2-  O23  1  0.75769100  0.84438000  0.91765200  1
