# generated using pymatgen
data_NaIn(WO4)2
_symmetry_space_group_name_H-M   'P 1'
_cell_length_a   5.16626500
_cell_length_b   5.92968800
_cell_length_c   10.24600059
_cell_angle_alpha   90.00000000
_cell_angle_beta   91.54411403
_cell_angle_gamma   90.00000000
_symmetry_Int_Tables_number   1
_chemical_formula_structural   NaIn(WO4)2
_chemical_formula_sum   'Na2 In2 W4 O16'
_cell_volume   313.76548355
_cell_formula_units_Z   2
loop_
 _symmetry_equiv_pos_site_id
 _symmetry_equiv_pos_as_xyz
  1  'x, y, z'
loop_
 _atom_type_symbol
 _atom_type_oxidation_number
  Na+  1.0
  In3+  3.0
  W6+  6.0
  O2-  -2.0
loop_
 _atom_site_type_symbol
 _atom_site_label
 _atom_site_symmetry_multiplicity
 _atom_site_fract_x
 _atom_site_fract_y
 _atom_site_fract_z
 _atom_site_occupancy
  Na+  Na0  1  0.75000000  0.67992200  0.00000000  1
  Na+  Na1  1  0.25000000  0.32007800  0.00000000  1
  In3+  In2  1  0.25000000  0.32059200  0.50000000  1
  In3+  In3  1  0.75000000  0.67940800  0.50000000  1
  W6+  W4  1  0.24936000  0.82875700  0.25684000  1
  W6+  W5  1  0.74936000  0.17124300  0.25684000  1
  W6+  W6  1  0.75064000  0.17124300  0.74316000  1
  W6+  W7  1  0.25064000  0.82875700  0.74316000  1
  O2-  O8  1  0.55991500  0.90482600  0.16723000  1
  O2-  O9  1  0.62218100  0.36681400  0.14150200  1
  O2-  O10  1  0.55591100  0.89368400  0.63290400  1
  O2-  O11  1  0.94008500  0.90482600  0.83277000  1
  O2-  O12  1  0.05591100  0.10631600  0.63290400  1
  O2-  O13  1  0.05991500  0.09517400  0.16723000  1
  O2-  O14  1  0.10452600  0.62595700  0.61578900  1
  O2-  O15  1  0.39547400  0.62595700  0.38421100  1
  O2-  O16  1  0.37781900  0.63318600  0.85849800  1
  O2-  O17  1  0.89547400  0.37404300  0.38421100  1
  O2-  O18  1  0.87781900  0.36681400  0.85849800  1
  O2-  O19  1  0.44008500  0.09517400  0.83277000  1
  O2-  O20  1  0.94408900  0.89368400  0.36709600  1
  O2-  O21  1  0.12218100  0.63318600  0.14150200  1
  O2-  O22  1  0.60452600  0.37404300  0.61578900  1
  O2-  O23  1  0.44408900  0.10631600  0.36709600  1
