# generated using pymatgen
data_NaIn(GeO3)2
_symmetry_space_group_name_H-M   'P 1'
_cell_length_a   10.44395200
_cell_length_b   9.33562400
_cell_length_c   5.69946717
_cell_angle_alpha   90.00000000
_cell_angle_beta   107.65434099
_cell_angle_gamma   90.00000000
_symmetry_Int_Tables_number   1
_chemical_formula_structural   NaIn(GeO3)2
_chemical_formula_sum   'Na4 In4 Ge8 O24'
_cell_volume   529.53098842
_cell_formula_units_Z   4
loop_
 _symmetry_equiv_pos_site_id
 _symmetry_equiv_pos_as_xyz
  1  'x, y, z'
loop_
 _atom_type_symbol
 _atom_type_oxidation_number
  Na+  1.0
  In3+  3.0
  Ge4+  4.0
  O2-  -2.0
loop_
 _atom_site_type_symbol
 _atom_site_label
 _atom_site_symmetry_multiplicity
 _atom_site_fract_x
 _atom_site_fract_y
 _atom_site_fract_z
 _atom_site_occupancy
  Na+  Na0  1  0.00000000  0.69646000  0.25000000  1
  Na+  Na1  1  0.00000000  0.30354000  0.75000000  1
  Na+  Na2  1  0.50000000  0.19646000  0.25000000  1
  Na+  Na3  1  0.50000000  0.80354000  0.75000000  1
  In3+  In4  1  0.00000000  0.10198700  0.25000000  1
  In3+  In5  1  0.00000000  0.89801300  0.75000000  1
  In3+  In6  1  0.50000000  0.60198700  0.25000000  1
  In3+  In7  1  0.50000000  0.39801300  0.75000000  1
  Ge4+  Ge8  1  0.20993250  0.40996850  0.25838100  1
  Ge4+  Ge9  1  0.79006750  0.40996850  0.24161900  1
  Ge4+  Ge10  1  0.79006750  0.59003150  0.74161900  1
  Ge4+  Ge11  1  0.20993250  0.59003150  0.75838100  1
  Ge4+  Ge12  1  0.70993250  0.90996850  0.25838100  1
  Ge4+  Ge13  1  0.29006750  0.90996850  0.24161900  1
  Ge4+  Ge14  1  0.29006750  0.09003150  0.74161900  1
  Ge4+  Ge15  1  0.70993250  0.09003150  0.75838100  1
  O2-  O16  1  0.14165500  0.24159600  0.17100200  1
  O2-  O17  1  0.85834500  0.24159600  0.32899800  1
  O2-  O18  1  0.85834500  0.75840400  0.82899800  1
  O2-  O19  1  0.14165500  0.75840400  0.67100200  1
  O2-  O20  1  0.38846150  0.41925150  0.35896800  1
  O2-  O21  1  0.61153850  0.41925150  0.14103200  1
  O2-  O22  1  0.61153850  0.58074850  0.64103200  1
  O2-  O23  1  0.38846150  0.58074850  0.85896800  1
  O2-  O24  1  0.14176400  0.48316100  0.48540500  1
  O2-  O25  1  0.85823600  0.48316100  0.01459500  1
  O2-  O26  1  0.85823600  0.51683900  0.51459500  1
  O2-  O27  1  0.14176400  0.51683900  0.98540500  1
  O2-  O28  1  0.64165500  0.74159600  0.17100200  1
  O2-  O29  1  0.35834500  0.74159600  0.32899800  1
  O2-  O30  1  0.35834500  0.25840400  0.82899800  1
  O2-  O31  1  0.64165500  0.25840400  0.67100200  1
  O2-  O32  1  0.88846150  0.91925150  0.35896800  1
  O2-  O33  1  0.11153850  0.91925150  0.14103200  1
  O2-  O34  1  0.11153850  0.08074850  0.64103200  1
  O2-  O35  1  0.88846150  0.08074850  0.85896800  1
  O2-  O36  1  0.64176400  0.98316100  0.48540500  1
  O2-  O37  1  0.35823600  0.98316100  0.01459500  1
  O2-  O38  1  0.35823600  0.01683900  0.51459500  1
  O2-  O39  1  0.64176400  0.01683900  0.98540500  1
