# generated using pymatgen
data_NaLiV2O6
_symmetry_space_group_name_H-M   'P 1'
_cell_length_a   10.74526800
_cell_length_b   9.94180600
_cell_length_c   5.93827937
_cell_angle_alpha   90.00000000
_cell_angle_beta   113.14430060
_cell_angle_gamma   90.00000000
_symmetry_Int_Tables_number   1
_chemical_formula_structural   NaLiV2O6
_chemical_formula_sum   'Na4 Li4 V8 O24'
_cell_volume   583.31525640
_cell_formula_units_Z   4
loop_
 _symmetry_equiv_pos_site_id
 _symmetry_equiv_pos_as_xyz
  1  'x, y, z'
loop_
 _atom_type_symbol
 _atom_type_oxidation_number
  Na+  1.0
  Li+  1.0
  V5+  5.0
  O2-  -2.0
loop_
 _atom_site_type_symbol
 _atom_site_label
 _atom_site_symmetry_multiplicity
 _atom_site_fract_x
 _atom_site_fract_y
 _atom_site_fract_z
 _atom_site_occupancy
  Na+  Na0  1  0.00000000  0.09834500  0.25000000  1
  Na+  Na1  1  0.00000000  0.90165500  0.75000000  1
  Na+  Na2  1  0.50000000  0.59834500  0.25000000  1
  Na+  Na3  1  0.50000000  0.40165500  0.75000000  1
  Li+  Li4  1  0.00000000  0.22612300  0.75000000  1
  Li+  Li5  1  0.00000000  0.77387700  0.25000000  1
  Li+  Li6  1  0.50000000  0.72612300  0.75000000  1
  Li+  Li7  1  0.50000000  0.27387700  0.25000000  1
  V5+  V8  1  0.20186250  0.41012350  0.20273900  1
  V5+  V9  1  0.79813750  0.41012350  0.29726100  1
  V5+  V10  1  0.79813750  0.58987650  0.79726100  1
  V5+  V11  1  0.20186250  0.58987650  0.70273900  1
  V5+  V12  1  0.70186250  0.91012350  0.20273900  1
  V5+  V13  1  0.29813750  0.91012350  0.29726100  1
  V5+  V14  1  0.29813750  0.08987650  0.79726100  1
  V5+  V15  1  0.70186250  0.08987650  0.70273900  1
  O2-  O16  1  0.37259550  0.39470350  0.32188700  1
  O2-  O17  1  0.62740450  0.39470350  0.17811300  1
  O2-  O18  1  0.62740450  0.60529650  0.67811300  1
  O2-  O19  1  0.37259550  0.60529650  0.82188700  1
  O2-  O20  1  0.12530900  0.26080400  0.11746000  1
  O2-  O21  1  0.87469100  0.26080400  0.38254000  1
  O2-  O22  1  0.87469100  0.73919600  0.88254000  1
  O2-  O23  1  0.12530900  0.73919600  0.61746000  1
  O2-  O24  1  0.15134100  0.48532700  0.43250700  1
  O2-  O25  1  0.84865900  0.48532700  0.06749300  1
  O2-  O26  1  0.84865900  0.51467300  0.56749300  1
  O2-  O27  1  0.15134100  0.51467300  0.93250700  1
  O2-  O28  1  0.87259550  0.89470350  0.32188700  1
  O2-  O29  1  0.12740450  0.89470350  0.17811300  1
  O2-  O30  1  0.12740450  0.10529650  0.67811300  1
  O2-  O31  1  0.87259550  0.10529650  0.82188700  1
  O2-  O32  1  0.62530900  0.76080400  0.11746000  1
  O2-  O33  1  0.37469100  0.76080400  0.38254000  1
  O2-  O34  1  0.37469100  0.23919600  0.88254000  1
  O2-  O35  1  0.62530900  0.23919600  0.61746000  1
  O2-  O36  1  0.65134100  0.98532700  0.43250700  1
  O2-  O37  1  0.34865900  0.98532700  0.06749300  1
  O2-  O38  1  0.34865900  0.01467300  0.56749300  1
  O2-  O39  1  0.65134100  0.01467300  0.93250700  1
