# generated using pymatgen
data_NaScAs2O7
_symmetry_space_group_name_H-M   'P 1'
_cell_length_a   7.07402000
_cell_length_b   8.87496200
_cell_length_c   4.89163958
_cell_angle_alpha   90.00000000
_cell_angle_beta   102.01596204
_cell_angle_gamma   90.00000000
_symmetry_Int_Tables_number   1
_chemical_formula_structural   NaScAs2O7
_chemical_formula_sum   'Na2 Sc2 As4 O14'
_cell_volume   300.37646029
_cell_formula_units_Z   2
loop_
 _symmetry_equiv_pos_site_id
 _symmetry_equiv_pos_as_xyz
  1  'x, y, z'
loop_
 _atom_type_symbol
 _atom_type_oxidation_number
  Na+  1.0
  Sc3+  3.0
  As5+  5.0
  O2-  -2.0
loop_
 _atom_site_type_symbol
 _atom_site_label
 _atom_site_symmetry_multiplicity
 _atom_site_fract_x
 _atom_site_fract_y
 _atom_site_fract_z
 _atom_site_occupancy
  Na+  Na0  1  0.50000000  0.25414200  0.50000000  1
  Na+  Na1  1  0.00000000  0.75414200  0.50000000  1
  Sc3+  Sc2  1  0.50000000  0.86834700  0.50000000  1
  Sc3+  Sc3  1  0.00000000  0.36834700  0.50000000  1
  As5+  As4  1  0.78606100  0.03750400  0.08604800  1
  As5+  As5  1  0.21393900  0.03750400  0.91395200  1
  As5+  As6  1  0.28606100  0.53750400  0.08604800  1
  As5+  As7  1  0.71393900  0.53750400  0.91395200  1
  O2-  O8  1  0.33323950  0.70695050  0.24611400  1
  O2-  O9  1  0.62285300  0.04824200  0.77823900  1
  O2-  O10  1  0.73787950  0.90026150  0.30553800  1
  O2-  O11  1  0.66676050  0.70695050  0.75388600  1
  O2-  O12  1  0.50000000  0.45841900  0.00000000  1
  O2-  O13  1  0.26212050  0.90026150  0.69446200  1
  O2-  O14  1  0.37714700  0.04824200  0.22176100  1
  O2-  O15  1  0.83323950  0.20695050  0.24611400  1
  O2-  O16  1  0.12285300  0.54824200  0.77823900  1
  O2-  O17  1  0.23787950  0.40026150  0.30553800  1
  O2-  O18  1  0.16676050  0.20695050  0.75388600  1
  O2-  O19  1  0.00000000  0.95841900  0.00000000  1
  O2-  O20  1  0.76212050  0.40026150  0.69446200  1
  O2-  O21  1  0.87714700  0.54824200  0.22176100  1
