# generated using pymatgen
data_NaSr3TaO6
_symmetry_space_group_name_H-M   'P 1'
_cell_length_a   9.88411045
_cell_length_b   9.88411045
_cell_length_c   11.71244436
_cell_angle_alpha   90.00000000
_cell_angle_beta   90.00000000
_cell_angle_gamma   120.00000000
_symmetry_Int_Tables_number   1
_chemical_formula_structural   NaSr3TaO6
_chemical_formula_sum   'Na6 Sr18 Ta6 O36'
_cell_volume   990.95367420
_cell_formula_units_Z   6
loop_
 _symmetry_equiv_pos_site_id
 _symmetry_equiv_pos_as_xyz
  1  'x, y, z'
loop_
 _atom_type_symbol
 _atom_type_oxidation_number
  Na+  1.0
  Sr2+  2.0
  Ta5+  5.0
  O2-  -2.0
loop_
 _atom_site_type_symbol
 _atom_site_label
 _atom_site_symmetry_multiplicity
 _atom_site_fract_x
 _atom_site_fract_y
 _atom_site_fract_z
 _atom_site_occupancy
  Na+  Na0  1  0.00000000  0.00000000  0.25000000  1
  Na+  Na1  1  0.00000000  0.00000000  0.75000000  1
  Na+  Na2  1  0.66666667  0.33333333  0.58333333  1
  Na+  Na3  1  0.66666667  0.33333333  0.08333333  1
  Na+  Na4  1  0.33333333  0.66666667  0.91666667  1
  Na+  Na5  1  0.33333333  0.66666667  0.41666667  1
  Sr2+  Sr6  1  0.01602667  0.68269333  0.58333333  1
  Sr2+  Sr7  1  0.31730667  0.33333333  0.58333333  1
  Sr2+  Sr8  1  0.66666667  0.98397333  0.58333333  1
  Sr2+  Sr9  1  0.98397333  0.31730667  0.41666667  1
  Sr2+  Sr10  1  0.68269333  0.66666667  0.41666667  1
  Sr2+  Sr11  1  0.33333333  0.01602667  0.41666667  1
  Sr2+  Sr12  1  0.68269333  0.01602667  0.91666667  1
  Sr2+  Sr13  1  0.98397333  0.66666667  0.91666667  1
  Sr2+  Sr14  1  0.33333333  0.31730667  0.91666667  1
  Sr2+  Sr15  1  0.65064000  0.65064000  0.75000000  1
  Sr2+  Sr16  1  0.34936000  0.00000000  0.75000000  1
  Sr2+  Sr17  1  1.00000000  0.34936000  0.75000000  1
  Sr2+  Sr18  1  0.34936000  0.34936000  0.25000000  1
  Sr2+  Sr19  1  0.65064000  1.00000000  0.25000000  1
  Sr2+  Sr20  1  0.00000000  0.65064000  0.25000000  1
  Sr2+  Sr21  1  0.31730667  0.98397333  0.08333333  1
  Sr2+  Sr22  1  0.01602667  0.33333333  0.08333333  1
  Sr2+  Sr23  1  0.66666667  0.68269333  0.08333333  1
  Ta5+  Ta24  1  0.00000000  0.00000000  0.50000000  1
  Ta5+  Ta25  1  0.00000000  0.00000000  0.00000000  1
  Ta5+  Ta26  1  0.66666667  0.33333333  0.83333333  1
  Ta5+  Ta27  1  0.66666667  0.33333333  0.33333333  1
  Ta5+  Ta28  1  0.33333333  0.66666667  0.16666667  1
  Ta5+  Ta29  1  0.33333333  0.66666667  0.66666667  1
  O2-  O30  1  0.82031333  0.97289167  0.40091867  1
  O2-  O31  1  0.02710833  0.84742167  0.40091867  1
  O2-  O32  1  0.15257833  0.17968667  0.40091867  1
  O2-  O33  1  0.51408833  0.36044167  0.43241467  1
  O2-  O34  1  0.63955833  0.15364667  0.43241467  1
  O2-  O35  1  0.84635333  0.48591167  0.43241467  1
  O2-  O36  1  0.17968667  0.02710833  0.59908133  1
  O2-  O37  1  0.97289167  0.15257833  0.59908133  1
  O2-  O38  1  0.84742167  0.82031333  0.59908133  1
  O2-  O39  1  0.48591167  0.63955833  0.56758533  1
  O2-  O40  1  0.15364667  0.51408833  0.56758533  1
  O2-  O41  1  0.36044167  0.84635333  0.56758533  1
  O2-  O42  1  0.48698000  0.30622500  0.73425200  1
  O2-  O43  1  0.69377500  0.18075500  0.73425200  1
  O2-  O44  1  0.81924500  0.51302000  0.73425200  1
  O2-  O45  1  0.18075500  0.69377500  0.76574800  1
  O2-  O46  1  0.30622500  0.48698000  0.76574800  1
  O2-  O47  1  0.51302000  0.81924500  0.76574800  1
  O2-  O48  1  0.84635333  0.36044167  0.93241467  1
  O2-  O49  1  0.63955833  0.48591167  0.93241467  1
  O2-  O50  1  0.51408833  0.15364667  0.93241467  1
  O2-  O51  1  0.15257833  0.97289167  0.90091867  1
  O2-  O52  1  0.82031333  0.84742167  0.90091867  1
  O2-  O53  1  0.02710833  0.17968667  0.90091867  1
  O2-  O54  1  0.15364667  0.63955833  0.06758533  1
  O2-  O55  1  0.36044167  0.51408833  0.06758533  1
  O2-  O56  1  0.48591167  0.84635333  0.06758533  1
  O2-  O57  1  0.84742167  0.02710833  0.09908133  1
  O2-  O58  1  0.97289167  0.82031333  0.09908133  1
  O2-  O59  1  0.17968667  0.15257833  0.09908133  1
  O2-  O60  1  0.51302000  0.69377500  0.26574800  1
  O2-  O61  1  0.30622500  0.81924500  0.26574800  1
  O2-  O62  1  0.18075500  0.48698000  0.26574800  1
  O2-  O63  1  0.81924500  0.30622500  0.23425200  1
  O2-  O64  1  0.48698000  0.18075500  0.23425200  1
  O2-  O65  1  0.69377500  0.51302000  0.23425200  1
