# generated using pymatgen
data_NaSr3BiO6
_symmetry_space_group_name_H-M   'P 1'
_cell_length_a   10.09234952
_cell_length_b   10.09234952
_cell_length_c   11.89889081
_cell_angle_alpha   90.00000000
_cell_angle_beta   90.00000000
_cell_angle_gamma   120.00000000
_symmetry_Int_Tables_number   1
_chemical_formula_structural   NaSr3BiO6
_chemical_formula_sum   'Na6 Sr18 Bi6 O36'
_cell_volume   1049.59481448
_cell_formula_units_Z   6
loop_
 _symmetry_equiv_pos_site_id
 _symmetry_equiv_pos_as_xyz
  1  'x, y, z'
loop_
 _atom_type_symbol
 _atom_type_oxidation_number
  Na+  1.0
  Sr2+  2.0
  Bi5+  5.0
  O2-  -2.0
loop_
 _atom_site_type_symbol
 _atom_site_label
 _atom_site_symmetry_multiplicity
 _atom_site_fract_x
 _atom_site_fract_y
 _atom_site_fract_z
 _atom_site_occupancy
  Na+  Na0  1  0.00000000  0.00000000  0.25000000  1
  Na+  Na1  1  0.00000000  0.00000000  0.75000000  1
  Na+  Na2  1  0.66666667  0.33333333  0.58333333  1
  Na+  Na3  1  0.66666667  0.33333333  0.08333333  1
  Na+  Na4  1  0.33333333  0.66666667  0.91666667  1
  Na+  Na5  1  0.33333333  0.66666667  0.41666667  1
  Sr2+  Sr6  1  0.33333333  0.01411867  0.41666667  1
  Sr2+  Sr7  1  0.31921467  0.33333333  0.58333333  1
  Sr2+  Sr8  1  0.68078533  0.66666667  0.41666667  1
  Sr2+  Sr9  1  0.66666667  0.98588133  0.58333333  1
  Sr2+  Sr10  1  0.98588133  0.31921467  0.41666667  1
  Sr2+  Sr11  1  0.01411867  0.68078533  0.58333333  1
  Sr2+  Sr12  1  0.00000000  0.34745200  0.75000000  1
  Sr2+  Sr13  1  0.98588133  0.66666667  0.91666667  1
  Sr2+  Sr14  1  0.34745200  0.00000000  0.75000000  1
  Sr2+  Sr15  1  0.33333333  0.31921467  0.91666667  1
  Sr2+  Sr16  1  0.65254800  0.65254800  0.75000000  1
  Sr2+  Sr17  1  0.68078533  0.01411867  0.91666667  1
  Sr2+  Sr18  1  0.66666667  0.68078533  0.08333333  1
  Sr2+  Sr19  1  0.65254800  0.00000000  0.25000000  1
  Sr2+  Sr20  1  0.01411867  0.33333333  0.08333333  1
  Sr2+  Sr21  1  0.00000000  0.65254800  0.25000000  1
  Sr2+  Sr22  1  0.31921467  0.98588133  0.08333333  1
  Sr2+  Sr23  1  0.34745200  0.34745200  0.25000000  1
  Bi5+  Bi24  1  0.00000000  0.00000000  0.00000000  1
  Bi5+  Bi25  1  0.00000000  0.00000000  0.50000000  1
  Bi5+  Bi26  1  0.66666667  0.33333333  0.33333333  1
  Bi5+  Bi27  1  0.66666667  0.33333333  0.83333333  1
  Bi5+  Bi28  1  0.33333333  0.66666667  0.66666667  1
  Bi5+  Bi29  1  0.33333333  0.66666667  0.16666667  1
  O2-  O30  1  0.96795967  0.15677733  0.60303833  1
  O2-  O31  1  0.18881767  0.03204033  0.60303833  1
  O2-  O32  1  0.81118233  0.96795967  0.39696167  1
  O2-  O33  1  0.63462633  0.14451567  0.43637167  1
  O2-  O34  1  0.15677733  0.18881767  0.39696167  1
  O2-  O35  1  0.03204033  0.84322267  0.39696167  1
  O2-  O36  1  0.50988933  0.36537367  0.43637167  1
  O2-  O37  1  0.85548433  0.49011067  0.43637167  1
  O2-  O38  1  0.36537367  0.85548433  0.56362833  1
  O2-  O39  1  0.84322267  0.81118233  0.60303833  1
  O2-  O40  1  0.49011067  0.63462633  0.56362833  1
  O2-  O41  1  0.14451567  0.50988933  0.56362833  1
  O2-  O42  1  0.63462633  0.49011067  0.93637167  1
  O2-  O43  1  0.85548433  0.36537367  0.93637167  1
  O2-  O44  1  0.47784900  0.30129300  0.73029500  1
  O2-  O45  1  0.30129300  0.47784900  0.76970500  1
  O2-  O46  1  0.82344400  0.52215100  0.73029500  1
  O2-  O47  1  0.69870700  0.17655600  0.73029500  1
  O2-  O48  1  0.17655600  0.69870700  0.76970500  1
  O2-  O49  1  0.52215100  0.82344400  0.76970500  1
  O2-  O50  1  0.03204033  0.18881767  0.89696167  1
  O2-  O51  1  0.50988933  0.14451567  0.93637167  1
  O2-  O52  1  0.15677733  0.96795967  0.89696167  1
  O2-  O53  1  0.81118233  0.84322267  0.89696167  1
  O2-  O54  1  0.30129300  0.82344400  0.26970500  1
  O2-  O55  1  0.52215100  0.69870700  0.26970500  1
  O2-  O56  1  0.14451567  0.63462633  0.06362833  1
  O2-  O57  1  0.96795967  0.81118233  0.10303833  1
  O2-  O58  1  0.49011067  0.85548433  0.06362833  1
  O2-  O59  1  0.36537367  0.50988933  0.06362833  1
  O2-  O60  1  0.84322267  0.03204033  0.10303833  1
  O2-  O61  1  0.18881767  0.15677733  0.10303833  1
  O2-  O62  1  0.69870700  0.52215100  0.23029500  1
  O2-  O63  1  0.17655600  0.47784900  0.26970500  1
  O2-  O64  1  0.82344400  0.30129300  0.23029500  1
  O2-  O65  1  0.47784900  0.17655600  0.23029500  1
