# generated using pymatgen
data_NaSr3SbO6
_symmetry_space_group_name_H-M   'P 1'
_cell_length_a   9.88617696
_cell_length_b   9.88617696
_cell_length_c   11.73357155
_cell_angle_alpha   90.00000000
_cell_angle_beta   90.00000000
_cell_angle_gamma   120.00000000
_symmetry_Int_Tables_number   1
_chemical_formula_structural   NaSr3SbO6
_chemical_formula_sum   'Na6 Sr18 Sb6 O36'
_cell_volume   993.15633530
_cell_formula_units_Z   6
loop_
 _symmetry_equiv_pos_site_id
 _symmetry_equiv_pos_as_xyz
  1  'x, y, z'
loop_
 _atom_type_symbol
 _atom_type_oxidation_number
  Na+  1.0
  Sr2+  2.0
  Sb5+  5.0
  O2-  -2.0
loop_
 _atom_site_type_symbol
 _atom_site_label
 _atom_site_symmetry_multiplicity
 _atom_site_fract_x
 _atom_site_fract_y
 _atom_site_fract_z
 _atom_site_occupancy
  Na+  Na0  1  0.00000000  0.00000000  0.75000000  1
  Na+  Na1  1  0.00000000  0.00000000  0.25000000  1
  Na+  Na2  1  0.66666667  0.33333333  0.08333333  1
  Na+  Na3  1  0.66666667  0.33333333  0.58333333  1
  Na+  Na4  1  0.33333333  0.66666667  0.41666667  1
  Na+  Na5  1  0.33333333  0.66666667  0.91666667  1
  Sr2+  Sr6  1  0.33333333  0.31700367  0.41666667  1
  Sr2+  Sr7  1  0.68299633  0.01632967  0.41666667  1
  Sr2+  Sr8  1  0.01632967  0.33333333  0.58333333  1
  Sr2+  Sr9  1  0.66666667  0.68299633  0.58333333  1
  Sr2+  Sr10  1  0.31700367  0.98367033  0.58333333  1
  Sr2+  Sr11  1  0.98367033  0.66666667  0.41666667  1
  Sr2+  Sr12  1  0.00000000  0.65033700  0.75000000  1
  Sr2+  Sr13  1  0.34966300  0.34966300  0.75000000  1
  Sr2+  Sr14  1  0.68299633  0.66666667  0.91666667  1
  Sr2+  Sr15  1  0.33333333  0.01632967  0.91666667  1
  Sr2+  Sr16  1  0.98367033  0.31700367  0.91666667  1
  Sr2+  Sr17  1  0.65033700  0.00000000  0.75000000  1
  Sr2+  Sr18  1  0.66666667  0.98367033  0.08333333  1
  Sr2+  Sr19  1  0.01632967  0.68299633  0.08333333  1
  Sr2+  Sr20  1  0.34966300  0.00000000  0.25000000  1
  Sr2+  Sr21  1  0.00000000  0.34966300  0.25000000  1
  Sr2+  Sr22  1  0.65033700  0.65033700  0.25000000  1
  Sr2+  Sr23  1  0.31700367  0.33333333  0.08333333  1
  Sb5+  Sb24  1  0.00000000  0.00000000  0.50000000  1
  Sb5+  Sb25  1  0.00000000  0.00000000  0.00000000  1
  Sb5+  Sb26  1  0.66666667  0.33333333  0.83333333  1
  Sb5+  Sb27  1  0.66666667  0.33333333  0.33333333  1
  Sb5+  Sb28  1  0.33333333  0.66666667  0.16666667  1
  Sb5+  Sb29  1  0.33333333  0.66666667  0.66666667  1
  O2-  O30  1  0.84701967  0.35995733  0.43290833  1
  O2-  O31  1  0.64004267  0.48706233  0.43290833  1
  O2-  O32  1  0.51293767  0.15298033  0.43290833  1
  O2-  O33  1  0.15372900  0.97337600  0.40042500  1
  O2-  O34  1  0.02662400  0.18035300  0.40042500  1
  O2-  O35  1  0.81964700  0.84627100  0.40042500  1
  O2-  O36  1  0.15298033  0.64004267  0.56709167  1
  O2-  O37  1  0.35995733  0.51293767  0.56709167  1
  O2-  O38  1  0.48706233  0.84701967  0.56709167  1
  O2-  O39  1  0.84627100  0.02662400  0.59957500  1
  O2-  O40  1  0.18035300  0.15372900  0.59957500  1
  O2-  O41  1  0.97337600  0.81964700  0.59957500  1
  O2-  O42  1  0.51368633  0.69329067  0.76624167  1
  O2-  O43  1  0.30670933  0.82039567  0.76624167  1
  O2-  O44  1  0.17960433  0.48631367  0.76624167  1
  O2-  O45  1  0.82039567  0.30670933  0.73375833  1
  O2-  O46  1  0.69329067  0.51368633  0.73375833  1
  O2-  O47  1  0.48631367  0.17960433  0.73375833  1
  O2-  O48  1  0.81964700  0.97337600  0.90042500  1
  O2-  O49  1  0.02662400  0.84627100  0.90042500  1
  O2-  O50  1  0.15372900  0.18035300  0.90042500  1
  O2-  O51  1  0.51293767  0.35995733  0.93290833  1
  O2-  O52  1  0.84701967  0.48706233  0.93290833  1
  O2-  O53  1  0.64004267  0.15298033  0.93290833  1
  O2-  O54  1  0.18035300  0.02662400  0.09957500  1
  O2-  O55  1  0.97337600  0.15372900  0.09957500  1
  O2-  O56  1  0.84627100  0.81964700  0.09957500  1
  O2-  O57  1  0.48706233  0.64004267  0.06709167  1
  O2-  O58  1  0.35995733  0.84701967  0.06709167  1
  O2-  O59  1  0.15298033  0.51293767  0.06709167  1
  O2-  O60  1  0.48631367  0.30670933  0.23375833  1
  O2-  O61  1  0.69329067  0.17960433  0.23375833  1
  O2-  O62  1  0.82039567  0.51368633  0.23375833  1
  O2-  O63  1  0.17960433  0.69329067  0.26624167  1
  O2-  O64  1  0.51368633  0.82039567  0.26624167  1
  O2-  O65  1  0.30670933  0.48631367  0.26624167  1
