# generated using pymatgen
data_NaTaGeO5
_symmetry_space_group_name_H-M   'P 1'
_cell_length_a   7.01802600
_cell_length_b   8.99119000
_cell_length_c   7.51781803
_cell_angle_alpha   90.00000000
_cell_angle_beta   115.35720494
_cell_angle_gamma   90.00000000
_symmetry_Int_Tables_number   1
_chemical_formula_structural   NaTaGeO5
_chemical_formula_sum   'Na4 Ta4 Ge4 O20'
_cell_volume   428.67367537
_cell_formula_units_Z   4
loop_
 _symmetry_equiv_pos_site_id
 _symmetry_equiv_pos_as_xyz
  1  'x, y, z'
loop_
 _atom_type_symbol
 _atom_type_oxidation_number
  Na+  1.0
  Ta5+  5.0
  Ge4+  4.0
  O2-  -2.0
loop_
 _atom_site_type_symbol
 _atom_site_label
 _atom_site_symmetry_multiplicity
 _atom_site_fract_x
 _atom_site_fract_y
 _atom_site_fract_z
 _atom_site_occupancy
  Na+  Na0  1  0.50000000  0.82409600  0.75000000  1
  Na+  Na1  1  0.50000000  0.17590400  0.25000000  1
  Na+  Na2  1  0.00000000  0.32409600  0.75000000  1
  Na+  Na3  1  0.00000000  0.67590400  0.25000000  1
  Ta5+  Ta4  1  0.00000000  0.00000000  0.50000000  1
  Ta5+  Ta5  1  0.00000000  0.00000000  0.00000000  1
  Ta5+  Ta6  1  0.50000000  0.50000000  0.50000000  1
  Ta5+  Ta7  1  0.50000000  0.50000000  0.00000000  1
  Ge4+  Ge8  1  0.50000000  0.81994000  0.25000000  1
  Ge4+  Ge9  1  0.50000000  0.18006000  0.75000000  1
  Ge4+  Ge10  1  0.00000000  0.31994000  0.25000000  1
  Ge4+  Ge11  1  0.00000000  0.68006000  0.75000000  1
  O2-  O12  1  0.50000000  0.43656600  0.25000000  1
  O2-  O13  1  0.50000000  0.56343400  0.75000000  1
  O2-  O14  1  0.58919550  0.29178250  0.60643500  1
  O2-  O15  1  0.41080450  0.29178250  0.89356500  1
  O2-  O16  1  0.41080450  0.70821750  0.39356500  1
  O2-  O17  1  0.58919550  0.70821750  0.10643500  1
  O2-  O18  1  0.69737350  0.94277150  0.40497600  1
  O2-  O19  1  0.30262650  0.94277150  0.09502400  1
  O2-  O20  1  0.30262650  0.05722850  0.59502400  1
  O2-  O21  1  0.69737350  0.05722850  0.90497600  1
  O2-  O22  1  0.00000000  0.93656600  0.25000000  1
  O2-  O23  1  0.00000000  0.06343400  0.75000000  1
  O2-  O24  1  0.08919550  0.79178250  0.60643500  1
  O2-  O25  1  0.91080450  0.79178250  0.89356500  1
  O2-  O26  1  0.91080450  0.20821750  0.39356500  1
  O2-  O27  1  0.08919550  0.20821750  0.10643500  1
  O2-  O28  1  0.19737350  0.44277150  0.40497600  1
  O2-  O29  1  0.80262650  0.44277150  0.09502400  1
  O2-  O30  1  0.80262650  0.55722850  0.59502400  1
  O2-  O31  1  0.19737350  0.55722850  0.90497600  1
