# generated using pymatgen
data_Nb2SnO6
_symmetry_space_group_name_H-M   'P 1'
_cell_length_a   17.41251800
_cell_length_b   4.96117000
_cell_length_c   5.70721612
_cell_angle_alpha   90.00000000
_cell_angle_beta   92.07717014
_cell_angle_gamma   90.00000000
_symmetry_Int_Tables_number   1
_chemical_formula_structural   Nb2SnO6
_chemical_formula_sum   'Nb8 Sn4 O24'
_cell_volume   492.70224846
_cell_formula_units_Z   4
loop_
 _symmetry_equiv_pos_site_id
 _symmetry_equiv_pos_as_xyz
  1  'x, y, z'
loop_
 _atom_type_symbol
 _atom_type_oxidation_number
  Nb5+  5.0
  Sn2+  2.0
  O2-  -2.0
loop_
 _atom_site_type_symbol
 _atom_site_label
 _atom_site_symmetry_multiplicity
 _atom_site_fract_x
 _atom_site_fract_y
 _atom_site_fract_z
 _atom_site_occupancy
  Nb5+  Nb0  1  0.82971550  0.24169450  0.82609600  1
  Nb5+  Nb1  1  0.67028450  0.74169450  0.67390400  1
  Nb5+  Nb2  1  0.67028450  0.25830550  0.17390400  1
  Nb5+  Nb3  1  0.82971550  0.75830550  0.32609600  1
  Nb5+  Nb4  1  0.32971550  0.74169450  0.82609600  1
  Nb5+  Nb5  1  0.17028450  0.24169450  0.67390400  1
  Nb5+  Nb6  1  0.17028450  0.75830550  0.17390400  1
  Nb5+  Nb7  1  0.32971550  0.25830550  0.32609600  1
  Sn2+  Sn8  1  0.00000000  0.77475400  0.75000000  1
  Sn2+  Sn9  1  0.00000000  0.22524600  0.25000000  1
  Sn2+  Sn10  1  0.50000000  0.27475400  0.75000000  1
  Sn2+  Sn11  1  0.50000000  0.72524600  0.25000000  1
  O2-  O12  1  0.71951300  0.44346300  0.85281900  1
  O2-  O13  1  0.78048700  0.94346300  0.64718100  1
  O2-  O14  1  0.78048700  0.05653700  0.14718100  1
  O2-  O15  1  0.71951300  0.55653700  0.35281900  1
  O2-  O16  1  0.85707850  0.46587550  0.58096200  1
  O2-  O17  1  0.64292150  0.96587550  0.91903800  1
  O2-  O18  1  0.92708950  0.91826150  0.40729600  1
  O2-  O19  1  0.57291050  0.41826150  0.09270400  1
  O2-  O20  1  0.57291050  0.58173850  0.59270400  1
  O2-  O21  1  0.92708950  0.08173850  0.90729600  1
  O2-  O22  1  0.85707850  0.53412450  0.08096200  1
  O2-  O23  1  0.64292150  0.03412450  0.41903800  1
  O2-  O24  1  0.21951300  0.94346300  0.85281900  1
  O2-  O25  1  0.28048700  0.44346300  0.64718100  1
  O2-  O26  1  0.28048700  0.55653700  0.14718100  1
  O2-  O27  1  0.21951300  0.05653700  0.35281900  1
  O2-  O28  1  0.35707850  0.96587550  0.58096200  1
  O2-  O29  1  0.14292150  0.46587550  0.91903800  1
  O2-  O30  1  0.42708950  0.41826150  0.40729600  1
  O2-  O31  1  0.07291050  0.91826150  0.09270400  1
  O2-  O32  1  0.07291050  0.08173850  0.59270400  1
  O2-  O33  1  0.42708950  0.58173850  0.90729600  1
  O2-  O34  1  0.35707850  0.03412450  0.08096200  1
  O2-  O35  1  0.14292150  0.53412450  0.41903800  1
