# generated using pymatgen
data_NbAlO4
_symmetry_space_group_name_H-M   'P 1'
_cell_length_a   12.30366800
_cell_length_b   3.81166800
_cell_length_c   6.56928817
_cell_angle_alpha   90.00000000
_cell_angle_beta   107.81469779
_cell_angle_gamma   90.00000000
_symmetry_Int_Tables_number   1
_chemical_formula_structural   NbAlO4
_chemical_formula_sum   'Nb4 Al4 O16'
_cell_volume   293.31087854
_cell_formula_units_Z   4
loop_
 _symmetry_equiv_pos_site_id
 _symmetry_equiv_pos_as_xyz
  1  'x, y, z'
loop_
 _atom_type_symbol
 _atom_type_oxidation_number
  Nb5+  5.0
  Al3+  3.0
  O2-  -2.0
loop_
 _atom_site_type_symbol
 _atom_site_label
 _atom_site_symmetry_multiplicity
 _atom_site_fract_x
 _atom_site_fract_y
 _atom_site_fract_z
 _atom_site_occupancy
  Nb5+  Nb0  1  0.39536300  0.50000000  0.76224600  1
  Nb5+  Nb1  1  0.10463700  0.00000000  0.23775400  1
  Nb5+  Nb2  1  0.89536300  0.00000000  0.76224600  1
  Nb5+  Nb3  1  0.60463700  0.50000000  0.23775400  1
  Al3+  Al4  1  0.20218200  0.00000000  0.82442700  1
  Al3+  Al5  1  0.29781800  0.50000000  0.17557300  1
  Al3+  Al6  1  0.70218200  0.50000000  0.82442700  1
  Al3+  Al7  1  0.79781800  0.00000000  0.17557300  1
  O2-  O8  1  0.14371200  0.50000000  0.20411800  1
  O2-  O9  1  0.35628800  0.00000000  0.79588200  1
  O2-  O10  1  0.26298700  0.00000000  0.14081500  1
  O2-  O11  1  0.23701300  0.50000000  0.85918500  1
  O2-  O12  1  0.14072600  0.00000000  0.52790000  1
  O2-  O13  1  0.35927400  0.50000000  0.47210000  1
  O2-  O14  1  0.05724100  0.00000000  0.86097900  1
  O2-  O15  1  0.44275900  0.50000000  0.13902100  1
  O2-  O16  1  0.64371200  0.00000000  0.20411800  1
  O2-  O17  1  0.85628800  0.50000000  0.79588200  1
  O2-  O18  1  0.76298700  0.50000000  0.14081500  1
  O2-  O19  1  0.73701300  0.00000000  0.85918500  1
  O2-  O20  1  0.64072600  0.50000000  0.52790000  1
  O2-  O21  1  0.85927400  0.00000000  0.47210000  1
  O2-  O22  1  0.55724100  0.50000000  0.86097900  1
  O2-  O23  1  0.94275900  0.00000000  0.13902100  1
