# generated using pymatgen
data_NbGaO4
_symmetry_space_group_name_H-M   'P 1'
_cell_length_a   12.70042600
_cell_length_b   3.84317200
_cell_length_c   6.72708478
_cell_angle_alpha   90.00000000
_cell_angle_beta   107.95545635
_cell_angle_gamma   90.00000000
_symmetry_Int_Tables_number   1
_chemical_formula_structural   NbGaO4
_chemical_formula_sum   'Nb4 Ga4 O16'
_cell_volume   312.35675035
_cell_formula_units_Z   4
loop_
 _symmetry_equiv_pos_site_id
 _symmetry_equiv_pos_as_xyz
  1  'x, y, z'
loop_
 _atom_type_symbol
 _atom_type_oxidation_number
  Nb5+  5.0
  Ga3+  3.0
  O2-  -2.0
loop_
 _atom_site_type_symbol
 _atom_site_label
 _atom_site_symmetry_multiplicity
 _atom_site_fract_x
 _atom_site_fract_y
 _atom_site_fract_z
 _atom_site_occupancy
  Nb5+  Nb0  1  0.39666200  0.50000000  0.76696200  1
  Nb5+  Nb1  1  0.10333800  0.00000000  0.23303800  1
  Nb5+  Nb2  1  0.89666200  0.00000000  0.76696200  1
  Nb5+  Nb3  1  0.60333800  0.50000000  0.23303800  1
  Ga3+  Ga4  1  0.30287400  0.50000000  0.18392000  1
  Ga3+  Ga5  1  0.19712600  0.00000000  0.81608000  1
  Ga3+  Ga6  1  0.80287400  0.00000000  0.18392000  1
  Ga3+  Ga7  1  0.69712600  0.50000000  0.81608000  1
  O2-  O8  1  0.13667600  0.00000000  0.51679100  1
  O2-  O9  1  0.36332400  0.50000000  0.48320900  1
  O2-  O10  1  0.05415400  0.00000000  0.86486700  1
  O2-  O11  1  0.44584600  0.50000000  0.13513300  1
  O2-  O12  1  0.24171700  0.50000000  0.85509700  1
  O2-  O13  1  0.25828300  0.00000000  0.14490300  1
  O2-  O14  1  0.13899600  0.50000000  0.20414300  1
  O2-  O15  1  0.36100400  0.00000000  0.79585700  1
  O2-  O16  1  0.63667600  0.50000000  0.51679100  1
  O2-  O17  1  0.86332400  0.00000000  0.48320900  1
  O2-  O18  1  0.55415400  0.50000000  0.86486700  1
  O2-  O19  1  0.94584600  0.00000000  0.13513300  1
  O2-  O20  1  0.74171700  0.00000000  0.85509700  1
  O2-  O21  1  0.75828300  0.50000000  0.14490300  1
  O2-  O22  1  0.63899600  0.00000000  0.20414300  1
  O2-  O23  1  0.86100400  0.50000000  0.79585700  1
