# generated using pymatgen
data_Pb3O4
_symmetry_space_group_name_H-M   'P 1'
_cell_length_a   9.03945400
_cell_length_b   9.03945400
_cell_length_c   6.77666600
_cell_angle_alpha   90.00000000
_cell_angle_beta   90.00000000
_cell_angle_gamma   90.00000000
_symmetry_Int_Tables_number   1
_chemical_formula_structural   Pb3O4
_chemical_formula_sum   'Pb12 O16'
_cell_volume   553.73309313
_cell_formula_units_Z   4
loop_
 _symmetry_equiv_pos_site_id
 _symmetry_equiv_pos_as_xyz
  1  'x, y, z'
loop_
 _atom_type_symbol
 _atom_type_oxidation_number
  Pb2.66666667+  2.6666666666666665
  O2-  -2.0
loop_
 _atom_site_type_symbol
 _atom_site_label
 _atom_site_symmetry_multiplicity
 _atom_site_fract_x
 _atom_site_fract_y
 _atom_site_fract_z
 _atom_site_occupancy
  Pb2.66666667+  Pb0  1  0.00000000  0.50000000  0.25000000  1
  Pb2.66666667+  Pb1  1  0.50000000  0.00000000  0.75000000  1
  Pb2.66666667+  Pb2  1  0.00000000  0.50000000  0.75000000  1
  Pb2.66666667+  Pb3  1  0.50000000  0.00000000  0.25000000  1
  Pb2.66666667+  Pb4  1  0.16749000  0.14492600  0.00000000  1
  Pb2.66666667+  Pb5  1  0.85507400  0.16749000  0.50000000  1
  Pb2.66666667+  Pb6  1  0.14492600  0.83251000  0.50000000  1
  Pb2.66666667+  Pb7  1  0.83251000  0.85507400  0.00000000  1
  Pb2.66666667+  Pb8  1  0.66749000  0.35507400  0.00000000  1
  Pb2.66666667+  Pb9  1  0.33251000  0.64492600  0.00000000  1
  Pb2.66666667+  Pb10  1  0.64492600  0.66749000  0.50000000  1
  Pb2.66666667+  Pb11  1  0.35507400  0.33251000  0.50000000  1
  O2-  O12  1  0.17061700  0.67061700  0.25000000  1
  O2-  O13  1  0.32938300  0.17061700  0.75000000  1
  O2-  O14  1  0.67061700  0.82938300  0.75000000  1
  O2-  O15  1  0.82938300  0.32938300  0.25000000  1
  O2-  O16  1  0.82938300  0.32938300  0.75000000  1
  O2-  O17  1  0.67061700  0.82938300  0.25000000  1
  O2-  O18  1  0.32938300  0.17061700  0.25000000  1
  O2-  O19  1  0.17061700  0.67061700  0.75000000  1
  O2-  O20  1  0.13338600  0.40520900  0.00000000  1
  O2-  O21  1  0.59479100  0.13338600  0.50000000  1
  O2-  O22  1  0.40520900  0.86661400  0.50000000  1
  O2-  O23  1  0.86661400  0.59479100  0.00000000  1
  O2-  O24  1  0.63338600  0.09479100  0.00000000  1
  O2-  O25  1  0.36661400  0.90520900  0.00000000  1
  O2-  O26  1  0.90520900  0.63338600  0.50000000  1
  O2-  O27  1  0.09479100  0.36661400  0.50000000  1
