# generated using pymatgen
data_Rb2Li3GaO4
_symmetry_space_group_name_H-M   'P 1'
_cell_length_a   4.98808800
_cell_length_b   9.91028200
_cell_length_c   11.64698200
_cell_angle_alpha   90.00000000
_cell_angle_beta   90.00000000
_cell_angle_gamma   90.00000000
_symmetry_Int_Tables_number   1
_chemical_formula_structural   Rb2Li3GaO4
_chemical_formula_sum   'Rb8 Li12 Ga4 O16'
_cell_volume   575.74943922
_cell_formula_units_Z   4
loop_
 _symmetry_equiv_pos_site_id
 _symmetry_equiv_pos_as_xyz
  1  'x, y, z'
loop_
 _atom_type_symbol
 _atom_type_oxidation_number
  Rb+  1.0
  Li+  1.0
  Ga3+  3.0
  O2-  -2.0
loop_
 _atom_site_type_symbol
 _atom_site_label
 _atom_site_symmetry_multiplicity
 _atom_site_fract_x
 _atom_site_fract_y
 _atom_site_fract_z
 _atom_site_occupancy
  Rb+  Rb0  1  0.23716300  0.12808200  0.00000000  1
  Rb+  Rb1  1  0.76283700  0.87191800  0.00000000  1
  Rb+  Rb2  1  0.26283700  0.62808200  0.00000000  1
  Rb+  Rb3  1  0.73716300  0.37191800  0.00000000  1
  Rb+  Rb4  1  0.73716300  0.62808200  0.50000000  1
  Rb+  Rb5  1  0.26283700  0.37191800  0.50000000  1
  Rb+  Rb6  1  0.76283700  0.12808200  0.50000000  1
  Rb+  Rb7  1  0.23716300  0.87191800  0.50000000  1
  Li+  Li8  1  0.50000000  0.74004700  0.75000000  1
  Li+  Li9  1  0.50000000  0.25995300  0.25000000  1
  Li+  Li10  1  0.50000000  0.25995300  0.75000000  1
  Li+  Li11  1  0.50000000  0.74004700  0.25000000  1
  Li+  Li12  1  0.50000000  0.50000000  0.75000000  1
  Li+  Li13  1  0.50000000  0.50000000  0.25000000  1
  Li+  Li14  1  0.00000000  0.24004700  0.25000000  1
  Li+  Li15  1  0.00000000  0.75995300  0.75000000  1
  Li+  Li16  1  0.00000000  0.75995300  0.25000000  1
  Li+  Li17  1  0.00000000  0.24004700  0.75000000  1
  Li+  Li18  1  0.00000000  0.00000000  0.25000000  1
  Li+  Li19  1  0.00000000  0.00000000  0.75000000  1
  Ga3+  Ga20  1  0.00000000  0.50000000  0.75000000  1
  Ga3+  Ga21  1  0.00000000  0.50000000  0.25000000  1
  Ga3+  Ga22  1  0.50000000  0.00000000  0.25000000  1
  Ga3+  Ga23  1  0.50000000  0.00000000  0.75000000  1
  O2-  O24  1  0.76664250  0.61833650  0.82928650  1
  O2-  O25  1  0.23335750  0.38166350  0.17071350  1
  O2-  O26  1  0.23335750  0.38166350  0.82928650  1
  O2-  O27  1  0.23335750  0.61833650  0.67071350  1
  O2-  O28  1  0.76664250  0.61833650  0.17071350  1
  O2-  O29  1  0.76664250  0.38166350  0.32928650  1
  O2-  O30  1  0.76664250  0.38166350  0.67071350  1
  O2-  O31  1  0.23335750  0.61833650  0.32928650  1
  O2-  O32  1  0.26664250  0.11833650  0.32928650  1
  O2-  O33  1  0.73335750  0.88166350  0.67071350  1
  O2-  O34  1  0.73335750  0.88166350  0.32928650  1
  O2-  O35  1  0.73335750  0.11833650  0.17071350  1
  O2-  O36  1  0.26664250  0.11833650  0.67071350  1
  O2-  O37  1  0.26664250  0.88166350  0.82928650  1
  O2-  O38  1  0.26664250  0.88166350  0.17071350  1
  O2-  O39  1  0.73335750  0.11833650  0.82928650  1
