# generated using pymatgen
data_Rb2MgO2
_symmetry_space_group_name_H-M   'P 1'
_cell_length_a   5.56972400
_cell_length_b   6.47807500
_cell_length_c   11.03608500
_cell_angle_alpha   90.00000000
_cell_angle_beta   90.00000000
_cell_angle_gamma   90.00000000
_symmetry_Int_Tables_number   1
_chemical_formula_structural   Rb2MgO2
_chemical_formula_sum   'Rb8 Mg4 O8'
_cell_volume   398.19397394
_cell_formula_units_Z   4
loop_
 _symmetry_equiv_pos_site_id
 _symmetry_equiv_pos_as_xyz
  1  'x, y, z'
loop_
 _atom_type_symbol
 _atom_type_oxidation_number
  Rb+  1.0
  Mg2+  2.0
  O2-  -2.0
loop_
 _atom_site_type_symbol
 _atom_site_label
 _atom_site_symmetry_multiplicity
 _atom_site_fract_x
 _atom_site_fract_y
 _atom_site_fract_z
 _atom_site_occupancy
  Rb+  Rb0  1  0.50177900  0.35836500  0.15451700  1
  Rb+  Rb1  1  0.00177900  0.64163500  0.15451700  1
  Rb+  Rb2  1  0.00177900  0.14163500  0.34548300  1
  Rb+  Rb3  1  0.50177900  0.85836500  0.34548300  1
  Rb+  Rb4  1  0.49822100  0.14163500  0.65451700  1
  Rb+  Rb5  1  0.99822100  0.85836500  0.65451700  1
  Rb+  Rb6  1  0.99822100  0.35836500  0.84548300  1
  Rb+  Rb7  1  0.49822100  0.64163500  0.84548300  1
  Mg2+  Mg8  1  0.25000000  0.00040400  0.00000000  1
  Mg2+  Mg9  1  0.75000000  0.99959600  0.00000000  1
  Mg2+  Mg10  1  0.75000000  0.49959600  0.50000000  1
  Mg2+  Mg11  1  0.25000000  0.50040400  0.50000000  1
  O2-  O12  1  0.99979100  0.16794200  0.09071600  1
  O2-  O13  1  0.49979100  0.83205800  0.09071600  1
  O2-  O14  1  0.49979100  0.33205800  0.40928400  1
  O2-  O15  1  0.99979100  0.66794200  0.40928400  1
  O2-  O16  1  0.00020900  0.33205800  0.59071600  1
  O2-  O17  1  0.50020900  0.66794200  0.59071600  1
  O2-  O18  1  0.50020900  0.16794200  0.90928400  1
  O2-  O19  1  0.00020900  0.83205800  0.90928400  1
