# generated using pymatgen
data_Rb2Pb2O3
_symmetry_space_group_name_H-M   'P 1'
_cell_length_a   8.96403200
_cell_length_b   8.96403200
_cell_length_c   8.96403200
_cell_angle_alpha   90.00000000
_cell_angle_beta   90.00000000
_cell_angle_gamma   90.00000000
_symmetry_Int_Tables_number   1
_chemical_formula_structural   Rb2Pb2O3
_chemical_formula_sum   'Rb8 Pb8 O12'
_cell_volume   720.29465929
_cell_formula_units_Z   4
loop_
 _symmetry_equiv_pos_site_id
 _symmetry_equiv_pos_as_xyz
  1  'x, y, z'
loop_
 _atom_type_symbol
 _atom_type_oxidation_number
  Rb+  1.0
  Pb2+  2.0
  O2-  -2.0
loop_
 _atom_site_type_symbol
 _atom_site_label
 _atom_site_symmetry_multiplicity
 _atom_site_fract_x
 _atom_site_fract_y
 _atom_site_fract_z
 _atom_site_occupancy
  Rb+  Rb0  1  0.23466100  0.23466100  0.23466100  1
  Rb+  Rb1  1  0.23466100  0.76533900  0.26533900  1
  Rb+  Rb2  1  0.26533900  0.23466100  0.76533900  1
  Rb+  Rb3  1  0.76533900  0.26533900  0.23466100  1
  Rb+  Rb4  1  0.73466100  0.73466100  0.73466100  1
  Rb+  Rb5  1  0.73466100  0.26533900  0.76533900  1
  Rb+  Rb6  1  0.76533900  0.73466100  0.26533900  1
  Rb+  Rb7  1  0.26533900  0.76533900  0.73466100  1
  Pb2+  Pb8  1  0.00491350  0.00491350  0.00491350  1
  Pb2+  Pb9  1  0.00491350  0.99508650  0.49508650  1
  Pb2+  Pb10  1  0.49508650  0.00491350  0.99508650  1
  Pb2+  Pb11  1  0.99508650  0.49508650  0.00491350  1
  Pb2+  Pb12  1  0.50491350  0.50491350  0.50491350  1
  Pb2+  Pb13  1  0.50491350  0.49508650  0.99508650  1
  Pb2+  Pb14  1  0.99508650  0.50491350  0.49508650  1
  Pb2+  Pb15  1  0.49508650  0.99508650  0.50491350  1
  O2-  O16  1  0.50000000  0.75000000  0.47459200  1
  O2-  O17  1  0.50000000  0.25000000  0.02540800  1
  O2-  O18  1  0.75000000  0.47459200  0.50000000  1
  O2-  O19  1  0.25000000  0.02540800  0.50000000  1
  O2-  O20  1  0.47459200  0.50000000  0.75000000  1
  O2-  O21  1  0.02540800  0.50000000  0.25000000  1
  O2-  O22  1  0.00000000  0.25000000  0.97459200  1
  O2-  O23  1  0.00000000  0.75000000  0.52540800  1
  O2-  O24  1  0.25000000  0.97459200  0.00000000  1
  O2-  O25  1  0.75000000  0.52540800  0.00000000  1
  O2-  O26  1  0.97459200  0.00000000  0.25000000  1
  O2-  O27  1  0.52540800  0.00000000  0.75000000  1
