# generated using pymatgen
data_Rb2TiO3
_symmetry_space_group_name_H-M   'P 1'
_cell_length_a   6.09130000
_cell_length_b   12.12622600
_cell_length_c   13.53612200
_cell_angle_alpha   90.00000000
_cell_angle_beta   90.00000000
_cell_angle_gamma   90.00000000
_symmetry_Int_Tables_number   1
_chemical_formula_structural   Rb2TiO3
_chemical_formula_sum   'Rb16 Ti8 O24'
_cell_volume   999.83861862
_cell_formula_units_Z   8
loop_
 _symmetry_equiv_pos_site_id
 _symmetry_equiv_pos_as_xyz
  1  'x, y, z'
loop_
 _atom_type_symbol
 _atom_type_oxidation_number
  Rb+  1.0
  Ti4+  4.0
  O2-  -2.0
loop_
 _atom_site_type_symbol
 _atom_site_label
 _atom_site_symmetry_multiplicity
 _atom_site_fract_x
 _atom_site_fract_y
 _atom_site_fract_z
 _atom_site_occupancy
  Rb+  Rb0  1  0.50000000  0.63278500  0.57344000  1
  Rb+  Rb1  1  0.00000000  0.63278500  0.92656000  1
  Rb+  Rb2  1  0.50000000  0.86721500  0.07344000  1
  Rb+  Rb3  1  0.00000000  0.86721500  0.42656000  1
  Rb+  Rb4  1  0.50000000  0.55769700  0.13688100  1
  Rb+  Rb5  1  0.00000000  0.94230300  0.86311900  1
  Rb+  Rb6  1  0.50000000  0.94230300  0.63688100  1
  Rb+  Rb7  1  0.00000000  0.55769700  0.36311900  1
  Rb+  Rb8  1  0.00000000  0.13278500  0.57344000  1
  Rb+  Rb9  1  0.50000000  0.13278500  0.92656000  1
  Rb+  Rb10  1  0.00000000  0.36721500  0.07344000  1
  Rb+  Rb11  1  0.50000000  0.36721500  0.42656000  1
  Rb+  Rb12  1  0.00000000  0.05769700  0.13688100  1
  Rb+  Rb13  1  0.50000000  0.44230300  0.86311900  1
  Rb+  Rb14  1  0.00000000  0.44230300  0.63688100  1
  Rb+  Rb15  1  0.50000000  0.05769700  0.36311900  1
  Ti4+  Ti16  1  0.00000000  0.74488600  0.17064200  1
  Ti4+  Ti17  1  0.00000000  0.75511400  0.67064200  1
  Ti4+  Ti18  1  0.50000000  0.75511400  0.82935800  1
  Ti4+  Ti19  1  0.50000000  0.74488600  0.32935800  1
  Ti4+  Ti20  1  0.50000000  0.24488600  0.17064200  1
  Ti4+  Ti21  1  0.50000000  0.25511400  0.67064200  1
  Ti4+  Ti22  1  0.00000000  0.25511400  0.82935800  1
  Ti4+  Ti23  1  0.00000000  0.24488600  0.32935800  1
  O2-  O24  1  0.25000000  0.77493500  0.25000000  1
  O2-  O25  1  0.75000000  0.72506500  0.75000000  1
  O2-  O26  1  0.25000000  0.72506500  0.75000000  1
  O2-  O27  1  0.75000000  0.77493500  0.25000000  1
  O2-  O28  1  0.50000000  0.60243700  0.36316100  1
  O2-  O29  1  0.00000000  0.89756300  0.63683900  1
  O2-  O30  1  0.50000000  0.89756300  0.86316100  1
  O2-  O31  1  0.00000000  0.83210900  0.06443500  1
  O2-  O32  1  0.50000000  0.83210900  0.43556500  1
  O2-  O33  1  0.00000000  0.66789100  0.56443500  1
  O2-  O34  1  0.50000000  0.66789100  0.93556500  1
  O2-  O35  1  0.00000000  0.60243700  0.13683900  1
  O2-  O36  1  0.75000000  0.27493500  0.25000000  1
  O2-  O37  1  0.25000000  0.22506500  0.75000000  1
  O2-  O38  1  0.75000000  0.22506500  0.75000000  1
  O2-  O39  1  0.25000000  0.27493500  0.25000000  1
  O2-  O40  1  0.00000000  0.10243700  0.36316100  1
  O2-  O41  1  0.50000000  0.39756300  0.63683900  1
  O2-  O42  1  0.00000000  0.39756300  0.86316100  1
  O2-  O43  1  0.50000000  0.33210900  0.06443500  1
  O2-  O44  1  0.00000000  0.33210900  0.43556500  1
  O2-  O45  1  0.50000000  0.16789100  0.56443500  1
  O2-  O46  1  0.00000000  0.16789100  0.93556500  1
  O2-  O47  1  0.50000000  0.10243700  0.13683900  1
