# generated using pymatgen
data_Rb2Ti(SiO3)3
_symmetry_space_group_name_H-M   'P 1'
_cell_length_a   7.00224815
_cell_length_b   7.00224815
_cell_length_c   10.10434400
_cell_angle_alpha   90.00000000
_cell_angle_beta   90.00000000
_cell_angle_gamma   120.00000000
_symmetry_Int_Tables_number   1
_chemical_formula_structural   Rb2Ti(SiO3)3
_chemical_formula_sum   'Rb4 Ti2 Si6 O18'
_cell_volume   429.05577321
_cell_formula_units_Z   2
loop_
 _symmetry_equiv_pos_site_id
 _symmetry_equiv_pos_as_xyz
  1  'x, y, z'
loop_
 _atom_type_symbol
 _atom_type_oxidation_number
  Rb+  1.0
  Ti4+  4.0
  Si4+  4.0
  O2-  -2.0
loop_
 _atom_site_type_symbol
 _atom_site_label
 _atom_site_symmetry_multiplicity
 _atom_site_fract_x
 _atom_site_fract_y
 _atom_site_fract_z
 _atom_site_occupancy
  Rb+  Rb0  1  0.66666667  0.33333333  0.93999500  1
  Rb+  Rb1  1  0.33333333  0.66666667  0.43999500  1
  Rb+  Rb2  1  0.33333333  0.66666667  0.06000500  1
  Rb+  Rb3  1  0.66666667  0.33333333  0.56000500  1
  Ti4+  Ti4  1  0.00000000  0.00000000  0.00000000  1
  Ti4+  Ti5  1  0.00000000  0.00000000  0.50000000  1
  Si4+  Si6  1  0.76163500  0.14053700  0.25000000  1
  Si4+  Si7  1  0.62109800  0.76163500  0.75000000  1
  Si4+  Si8  1  0.14053700  0.37890200  0.75000000  1
  Si4+  Si9  1  0.85946300  0.62109800  0.25000000  1
  Si4+  Si10  1  0.37890200  0.23836500  0.25000000  1
  Si4+  Si11  1  0.23836500  0.85946300  0.75000000  1
  O2-  O12  1  0.20764700  0.96013300  0.88703200  1
  O2-  O13  1  0.24751400  0.20764700  0.38703200  1
  O2-  O14  1  0.96013300  0.75248600  0.38703200  1
  O2-  O15  1  0.03986700  0.24751400  0.88703200  1
  O2-  O16  1  0.75248600  0.79235300  0.88703200  1
  O2-  O17  1  0.79235300  0.03986700  0.38703200  1
  O2-  O18  1  0.79235300  0.03986700  0.11296800  1
  O2-  O19  1  0.75248600  0.79235300  0.61296800  1
  O2-  O20  1  0.03986700  0.24751400  0.61296800  1
  O2-  O21  1  0.96013300  0.75248600  0.11296800  1
  O2-  O22  1  0.24751400  0.20764700  0.11296800  1
  O2-  O23  1  0.20764700  0.96013300  0.61296800  1
  O2-  O24  1  0.08445200  0.58562400  0.75000000  1
  O2-  O25  1  0.49882800  0.08445200  0.25000000  1
  O2-  O26  1  0.58562400  0.50117200  0.25000000  1
  O2-  O27  1  0.41437600  0.49882800  0.75000000  1
  O2-  O28  1  0.50117200  0.91554800  0.75000000  1
  O2-  O29  1  0.91554800  0.41437600  0.25000000  1
