# generated using pymatgen
data_Rb3YV2O8
_symmetry_space_group_name_H-M   'P 1'
_cell_length_a   6.08180557
_cell_length_b   6.08180557
_cell_length_c   7.99080900
_cell_angle_alpha   90.00000000
_cell_angle_beta   90.00000000
_cell_angle_gamma   120.00000000
_symmetry_Int_Tables_number   1
_chemical_formula_structural   Rb3YV2O8
_chemical_formula_sum   'Rb3 Y1 V2 O8'
_cell_volume   255.96845422
_cell_formula_units_Z   1
loop_
 _symmetry_equiv_pos_site_id
 _symmetry_equiv_pos_as_xyz
  1  'x, y, z'
loop_
 _atom_type_symbol
 _atom_type_oxidation_number
  Rb+  1.0
  Y3+  3.0
  V5+  5.0
  O2-  -2.0
loop_
 _atom_site_type_symbol
 _atom_site_label
 _atom_site_symmetry_multiplicity
 _atom_site_fract_x
 _atom_site_fract_y
 _atom_site_fract_z
 _atom_site_occupancy
  Rb+  Rb0  1  0.33333333  0.66666667  0.70145500  1
  Rb+  Rb1  1  0.66666667  0.33333333  0.29854500  1
  Rb+  Rb2  1  0.00000000  0.00000000  0.00000000  1
  Y3+  Y3  1  0.00000000  0.00000000  0.50000000  1
  V5+  V4  1  0.33333333  0.66666667  0.25531500  1
  V5+  V5  1  0.66666667  0.33333333  0.74468500  1
  O2-  O6  1  0.33333333  0.66666667  0.04477400  1
  O2-  O7  1  0.66666667  0.33333333  0.95522600  1
  O2-  O8  1  0.17547700  0.82452300  0.33143000  1
  O2-  O9  1  0.82452300  0.17547700  0.66857000  1
  O2-  O10  1  0.17547700  0.35095400  0.33143000  1
  O2-  O11  1  0.82452300  0.64904600  0.66857000  1
  O2-  O12  1  0.64904600  0.82452300  0.33143000  1
  O2-  O13  1  0.35095400  0.17547700  0.66857000  1
