# generated using pymatgen
data_RbAgO2
_symmetry_space_group_name_H-M   'P 1'
_cell_length_a   4.78559200
_cell_length_b   12.51494400
_cell_length_c   6.06392000
_cell_angle_alpha   90.00000000
_cell_angle_beta   90.00000000
_cell_angle_gamma   90.00000000
_symmetry_Int_Tables_number   1
_chemical_formula_structural   RbAgO2
_chemical_formula_sum   'Rb4 Ag4 O8'
_cell_volume   363.17675462
_cell_formula_units_Z   4
loop_
 _symmetry_equiv_pos_site_id
 _symmetry_equiv_pos_as_xyz
  1  'x, y, z'
loop_
 _atom_type_symbol
 _atom_type_oxidation_number
  Rb+  1.0
  Ag+  1.0
  O-  -1.0
loop_
 _atom_site_type_symbol
 _atom_site_label
 _atom_site_symmetry_multiplicity
 _atom_site_fract_x
 _atom_site_fract_y
 _atom_site_fract_z
 _atom_site_occupancy
  Rb+  Rb0  1  0.50000000  0.79952100  0.25000000  1
  Rb+  Rb1  1  0.00000000  0.70047900  0.75000000  1
  Rb+  Rb2  1  0.00000000  0.29952100  0.25000000  1
  Rb+  Rb3  1  0.50000000  0.20047900  0.75000000  1
  Ag+  Ag4  1  0.50000000  0.50294200  0.25000000  1
  Ag+  Ag5  1  0.00000000  0.99705800  0.75000000  1
  Ag+  Ag6  1  0.00000000  0.00294200  0.25000000  1
  Ag+  Ag7  1  0.50000000  0.49705800  0.75000000  1
  O-  O8  1  0.50000000  0.60923800  0.99422200  1
  O-  O9  1  0.00000000  0.89076200  0.00577800  1
  O-  O10  1  0.00000000  0.89076200  0.49422200  1
  O-  O11  1  0.50000000  0.60923800  0.50577800  1
  O-  O12  1  0.00000000  0.10923800  0.99422200  1
  O-  O13  1  0.50000000  0.39076200  0.00577800  1
  O-  O14  1  0.50000000  0.39076200  0.49422200  1
  O-  O15  1  0.00000000  0.10923800  0.50577800  1
