# generated using pymatgen
data_RbBO2
_symmetry_space_group_name_H-M   'P 1'
_cell_length_a   13.30688940
_cell_length_b   13.30688940
_cell_length_c   8.00477762
_cell_angle_alpha   90.00000000
_cell_angle_beta   90.00000000
_cell_angle_gamma   120.00000000
_symmetry_Int_Tables_number   1
_chemical_formula_structural   RbBO2
_chemical_formula_sum   'Rb18 B18 O36'
_cell_volume   1227.53249389
_cell_formula_units_Z   18
loop_
 _symmetry_equiv_pos_site_id
 _symmetry_equiv_pos_as_xyz
  1  'x, y, z'
loop_
 _atom_type_symbol
 _atom_type_oxidation_number
  Rb+  1.0
  B3+  3.0
  O2-  -2.0
loop_
 _atom_site_type_symbol
 _atom_site_label
 _atom_site_symmetry_multiplicity
 _atom_site_fract_x
 _atom_site_fract_y
 _atom_site_fract_z
 _atom_site_occupancy
  Rb+  Rb0  1  0.10680167  0.33333333  0.08333333  1
  Rb+  Rb1  1  0.00000000  0.44013500  0.75000000  1
  Rb+  Rb2  1  0.89319833  0.22653167  0.41666667  1
  Rb+  Rb3  1  0.55986500  0.00000000  0.25000000  1
  Rb+  Rb4  1  0.66666667  0.89319833  0.58333333  1
  Rb+  Rb5  1  0.77346833  0.10680167  0.91666667  1
  Rb+  Rb6  1  0.77346833  0.66666667  0.41666667  1
  Rb+  Rb7  1  0.66666667  0.77346833  0.08333333  1
  Rb+  Rb8  1  0.55986500  0.55986500  0.75000000  1
  Rb+  Rb9  1  0.22653167  0.33333333  0.58333333  1
  Rb+  Rb10  1  0.33333333  0.22653167  0.91666667  1
  Rb+  Rb11  1  0.44013500  0.44013500  0.25000000  1
  Rb+  Rb12  1  0.44013500  0.00000000  0.75000000  1
  Rb+  Rb13  1  0.33333333  0.10680167  0.41666667  1
  Rb+  Rb14  1  0.22653167  0.89319833  0.08333333  1
  Rb+  Rb15  1  0.89319833  0.66666667  0.91666667  1
  Rb+  Rb16  1  0.00000000  0.55986500  0.25000000  1
  Rb+  Rb17  1  0.10680167  0.77346833  0.58333333  1
  B3+  B18  1  0.77617667  0.33333333  0.08333333  1
  B3+  B19  1  0.00000000  0.10951000  0.75000000  1
  B3+  B20  1  0.22382333  0.55715667  0.41666667  1
  B3+  B21  1  0.89049000  0.00000000  0.25000000  1
  B3+  B22  1  0.66666667  0.22382333  0.58333333  1
  B3+  B23  1  0.44284333  0.77617667  0.91666667  1
  B3+  B24  1  0.44284333  0.66666667  0.41666667  1
  B3+  B25  1  0.66666667  0.44284333  0.08333333  1
  B3+  B26  1  0.89049000  0.89049000  0.75000000  1
  B3+  B27  1  0.55715667  0.33333333  0.58333333  1
  B3+  B28  1  0.33333333  0.55715667  0.91666667  1
  B3+  B29  1  0.10951000  0.10951000  0.25000000  1
  B3+  B30  1  0.10951000  0.00000000  0.75000000  1
  B3+  B31  1  0.33333333  0.77617667  0.41666667  1
  B3+  B32  1  0.55715667  0.22382333  0.08333333  1
  B3+  B33  1  0.22382333  0.66666667  0.91666667  1
  B3+  B34  1  0.00000000  0.89049000  0.25000000  1
  B3+  B35  1  0.77617667  0.44284333  0.58333333  1
  O2-  O36  1  0.54251033  0.87584367  0.91666667  1
  O2-  O37  1  0.66666667  0.12415633  0.58333333  1
  O2-  O38  1  0.79082300  1.00000000  0.25000000  1
  O2-  O39  1  0.12415633  0.45748967  0.41666667  1
  O2-  O40  1  0.00000000  0.20917700  0.75000000  1
  O2-  O41  1  0.87584367  0.33333333  0.08333333  1
  O2-  O42  1  0.77138367  0.33333333  0.58333333  1
  O2-  O43  1  0.22861633  0.56194967  0.91666667  1
  O2-  O44  1  0.00000000  0.10471700  0.25000000  1
  O2-  O45  1  0.89528300  0.00000000  0.75000000  1
  O2-  O46  1  0.43805033  0.77138367  0.41666667  1
  O2-  O47  1  0.66666667  0.22861633  0.08333333  1
  O2-  O48  1  0.20917700  0.20917700  0.25000000  1
  O2-  O49  1  0.33333333  0.45748967  0.91666667  1
  O2-  O50  1  0.45748967  0.33333333  0.58333333  1
  O2-  O51  1  0.79082300  0.79082300  0.75000000  1
  O2-  O52  1  0.66666667  0.54251033  0.08333333  1
  O2-  O53  1  0.54251033  0.66666667  0.41666667  1
  O2-  O54  1  0.43805033  0.66666667  0.91666667  1
  O2-  O55  1  0.89528300  0.89528300  0.25000000  1
  O2-  O56  1  0.66666667  0.43805033  0.58333333  1
  O2-  O57  1  0.56194967  0.33333333  0.08333333  1
  O2-  O58  1  0.10471700  0.10471700  0.75000000  1
  O2-  O59  1  0.33333333  0.56194967  0.41666667  1
  O2-  O60  1  0.87584367  0.54251033  0.58333333  1
  O2-  O61  1  0.00000000  0.79082300  0.25000000  1
  O2-  O62  1  0.12415633  0.66666667  0.91666667  1
  O2-  O63  1  0.45748967  0.12415633  0.08333333  1
  O2-  O64  1  0.33333333  0.87584367  0.41666667  1
  O2-  O65  1  0.20917700  0.00000000  0.75000000  1
  O2-  O66  1  0.10471700  0.00000000  0.25000000  1
  O2-  O67  1  0.56194967  0.22861633  0.58333333  1
  O2-  O68  1  0.33333333  0.77138367  0.91666667  1
  O2-  O69  1  0.22861633  0.66666667  0.41666667  1
  O2-  O70  1  0.77138367  0.43805033  0.08333333  1
  O2-  O71  1  0.00000000  0.89528300  0.75000000  1
