# generated using pymatgen
data_RbLa(MoO4)2
_symmetry_space_group_name_H-M   'P 1'
_cell_length_a   6.49589800
_cell_length_b   6.49589800
_cell_length_c   9.81151300
_cell_angle_alpha   90.00000000
_cell_angle_beta   90.00000000
_cell_angle_gamma   90.00000000
_symmetry_Int_Tables_number   1
_chemical_formula_structural   RbLa(MoO4)2
_chemical_formula_sum   'Rb2 La2 Mo4 O16'
_cell_volume   414.01338060
_cell_formula_units_Z   2
loop_
 _symmetry_equiv_pos_site_id
 _symmetry_equiv_pos_as_xyz
  1  'x, y, z'
loop_
 _atom_type_symbol
 _atom_type_oxidation_number
  Rb+  1.0
  La3+  3.0
  Mo6+  6.0
  O2-  -2.0
loop_
 _atom_site_type_symbol
 _atom_site_label
 _atom_site_symmetry_multiplicity
 _atom_site_fract_x
 _atom_site_fract_y
 _atom_site_fract_z
 _atom_site_occupancy
  Rb+  Rb0  1  0.00000000  0.00000000  0.50000000  1
  Rb+  Rb1  1  0.50000000  0.50000000  0.00000000  1
  La3+  La2  1  0.00000000  0.00000000  0.00000000  1
  La3+  La3  1  0.50000000  0.50000000  0.50000000  1
  Mo6+  Mo4  1  0.00000000  0.50000000  0.75000000  1
  Mo6+  Mo5  1  0.00000000  0.50000000  0.25000000  1
  Mo6+  Mo6  1  0.50000000  0.00000000  0.75000000  1
  Mo6+  Mo7  1  0.50000000  0.00000000  0.25000000  1
  O2-  O8  1  0.80617100  0.60947500  0.64074600  1
  O2-  O9  1  0.19382900  0.39052500  0.64074600  1
  O2-  O10  1  0.60947500  0.80617100  0.35925400  1
  O2-  O11  1  0.60947500  0.19382900  0.64074600  1
  O2-  O12  1  0.39052500  0.80617100  0.64074600  1
  O2-  O13  1  0.19382900  0.60947500  0.35925400  1
  O2-  O14  1  0.80617100  0.39052500  0.35925400  1
  O2-  O15  1  0.39052500  0.19382900  0.35925400  1
  O2-  O16  1  0.10947500  0.30617100  0.14074600  1
  O2-  O17  1  0.69382900  0.10947500  0.14074600  1
  O2-  O18  1  0.30617100  0.89052500  0.14074600  1
  O2-  O19  1  0.10947500  0.69382900  0.85925400  1
  O2-  O20  1  0.89052500  0.30617100  0.85925400  1
  O2-  O21  1  0.89052500  0.69382900  0.14074600  1
  O2-  O22  1  0.30617100  0.10947500  0.85925400  1
  O2-  O23  1  0.69382900  0.89052500  0.85925400  1
