# generated using pymatgen
data_RbNaCd3O4
_symmetry_space_group_name_H-M   'P 1'
_cell_length_a   13.12756800
_cell_length_b   3.74801600
_cell_length_c   9.26584822
_cell_angle_alpha   90.00000000
_cell_angle_beta   134.67622452
_cell_angle_gamma   90.00000000
_symmetry_Int_Tables_number   1
_chemical_formula_structural   RbNaCd3O4
_chemical_formula_sum   'Rb2 Na2 Cd6 O8'
_cell_volume   324.18749317
_cell_formula_units_Z   2
loop_
 _symmetry_equiv_pos_site_id
 _symmetry_equiv_pos_as_xyz
  1  'x, y, z'
loop_
 _atom_type_symbol
 _atom_type_oxidation_number
  Rb+  1.0
  Na+  1.0
  Cd2+  2.0
  O2-  -2.0
loop_
 _atom_site_type_symbol
 _atom_site_label
 _atom_site_symmetry_multiplicity
 _atom_site_fract_x
 _atom_site_fract_y
 _atom_site_fract_z
 _atom_site_occupancy
  Rb+  Rb0  1  0.50133600  0.50000000  0.99911600  1
  Rb+  Rb1  1  0.00133600  0.00000000  0.99911600  1
  Na+  Na2  1  0.32015500  0.50000000  0.45017400  1
  Na+  Na3  1  0.82015500  0.00000000  0.45017400  1
  Cd2+  Cd4  1  0.69211700  0.50000000  0.55500000  1
  Cd2+  Cd5  1  0.62285400  0.00000000  0.80583800  1
  Cd2+  Cd6  1  0.36914200  0.00000000  0.19163500  1
  Cd2+  Cd7  1  0.19211700  0.00000000  0.55500000  1
  Cd2+  Cd8  1  0.12285400  0.50000000  0.80583800  1
  Cd2+  Cd9  1  0.86914200  0.50000000  0.19163500  1
  O2-  O10  1  0.26157200  0.50000000  0.15191700  1
  O2-  O11  1  0.73387000  0.50000000  0.83317600  1
  O2-  O12  1  0.40181200  0.00000000  0.64677800  1
  O2-  O13  1  0.59714300  0.00000000  0.36636500  1
  O2-  O14  1  0.76157200  0.00000000  0.15191700  1
  O2-  O15  1  0.23387000  0.00000000  0.83317600  1
  O2-  O16  1  0.90181200  0.50000000  0.64677800  1
  O2-  O17  1  0.09714300  0.50000000  0.36636500  1
