# generated using pymatgen
data_RbSbMoO6
_symmetry_space_group_name_H-M   'P 1'
_cell_length_a   7.26243800
_cell_length_b   7.59944800
_cell_length_c   10.29291200
_cell_angle_alpha   90.00000000
_cell_angle_beta   90.00000000
_cell_angle_gamma   90.00000000
_symmetry_Int_Tables_number   1
_chemical_formula_structural   RbSbMoO6
_chemical_formula_sum   'Rb4 Sb4 Mo4 O24'
_cell_volume   568.07116492
_cell_formula_units_Z   4
loop_
 _symmetry_equiv_pos_site_id
 _symmetry_equiv_pos_as_xyz
  1  'x, y, z'
loop_
 _atom_type_symbol
 _atom_type_oxidation_number
  Rb+  1.0
  Sb5+  5.0
  Mo6+  6.0
  O2-  -2.0
loop_
 _atom_site_type_symbol
 _atom_site_label
 _atom_site_symmetry_multiplicity
 _atom_site_fract_x
 _atom_site_fract_y
 _atom_site_fract_z
 _atom_site_occupancy
  Rb+  Rb0  1  0.75000000  0.96524300  0.86184800  1
  Rb+  Rb1  1  0.25000000  0.96524300  0.13815200  1
  Rb+  Rb2  1  0.25000000  0.46524300  0.36184800  1
  Rb+  Rb3  1  0.75000000  0.46524300  0.63815200  1
  Sb5+  Sb4  1  0.50000000  0.00365200  0.50000000  1
  Sb5+  Sb5  1  0.00000000  0.00365200  0.50000000  1
  Sb5+  Sb6  1  0.00000000  0.50365200  0.00000000  1
  Sb5+  Sb7  1  0.50000000  0.50365200  0.00000000  1
  Mo6+  Mo8  1  0.25000000  0.22179300  0.76026300  1
  Mo6+  Mo9  1  0.75000000  0.22179300  0.23973700  1
  Mo6+  Mo10  1  0.75000000  0.72179300  0.26026300  1
  Mo6+  Mo11  1  0.25000000  0.72179300  0.73973700  1
  O2-  O12  1  0.75000000  0.00067300  0.18289100  1
  O2-  O13  1  0.75000000  0.00475400  0.57781300  1
  O2-  O14  1  0.56212350  0.81285950  0.37267750  1
  O2-  O15  1  0.93795800  0.19308300  0.37123100  1
  O2-  O16  1  0.56204200  0.19308300  0.37123100  1
  O2-  O17  1  0.93787650  0.81285950  0.37267750  1
  O2-  O18  1  0.25000000  0.00067300  0.81710900  1
  O2-  O19  1  0.25000000  0.00475400  0.42218700  1
  O2-  O20  1  0.43795800  0.19308300  0.62876900  1
  O2-  O21  1  0.06212350  0.81285950  0.62732250  1
  O2-  O22  1  0.43787650  0.81285950  0.62732250  1
  O2-  O23  1  0.06204200  0.19308300  0.62876900  1
  O2-  O24  1  0.25000000  0.50067300  0.68289100  1
  O2-  O25  1  0.25000000  0.50475400  0.07781300  1
  O2-  O26  1  0.06212350  0.31285950  0.87267750  1
  O2-  O27  1  0.43795800  0.69308300  0.87123100  1
  O2-  O28  1  0.06204200  0.69308300  0.87123100  1
  O2-  O29  1  0.43787650  0.31285950  0.87267750  1
  O2-  O30  1  0.75000000  0.50067300  0.31710900  1
  O2-  O31  1  0.75000000  0.50475400  0.92218700  1
  O2-  O32  1  0.93795800  0.69308300  0.12876900  1
  O2-  O33  1  0.56212350  0.31285950  0.12732250  1
  O2-  O34  1  0.93787650  0.31285950  0.12732250  1
  O2-  O35  1  0.56204200  0.69308300  0.12876900  1
