# generated using pymatgen
data_RbSc(MoO4)2
_symmetry_space_group_name_H-M   'P 1'
_cell_length_a   5.90598248
_cell_length_b   5.90598248
_cell_length_c   7.80395900
_cell_angle_alpha   90.00000000
_cell_angle_beta   90.00000000
_cell_angle_gamma   120.00000000
_symmetry_Int_Tables_number   1
_chemical_formula_structural   RbSc(MoO4)2
_chemical_formula_sum   'Rb1 Sc1 Mo2 O8'
_cell_volume   235.73817621
_cell_formula_units_Z   1
loop_
 _symmetry_equiv_pos_site_id
 _symmetry_equiv_pos_as_xyz
  1  'x, y, z'
loop_
 _atom_type_symbol
 _atom_type_oxidation_number
  Rb+  1.0
  Sc3+  3.0
  Mo6+  6.0
  O2-  -2.0
loop_
 _atom_site_type_symbol
 _atom_site_label
 _atom_site_symmetry_multiplicity
 _atom_site_fract_x
 _atom_site_fract_y
 _atom_site_fract_z
 _atom_site_occupancy
  Rb+  Rb0  1  0.00000000  0.00000000  0.00000000  1
  Sc3+  Sc1  1  0.00000000  0.00000000  0.50000000  1
  Mo6+  Mo2  1  0.33333333  0.66666667  0.26602500  1
  Mo6+  Mo3  1  0.66666667  0.33333333  0.73397500  1
  O2-  O4  1  0.16501200  0.83498800  0.33785600  1
  O2-  O5  1  0.83498800  0.16501200  0.66214400  1
  O2-  O6  1  0.16501200  0.33002400  0.33785600  1
  O2-  O7  1  0.83498800  0.66997600  0.66214400  1
  O2-  O8  1  0.66997600  0.83498800  0.33785600  1
  O2-  O9  1  0.33002400  0.16501200  0.66214400  1
  O2-  O10  1  0.33333333  0.66666667  0.04203300  1
  O2-  O11  1  0.66666667  0.33333333  0.95796700  1
