# generated using pymatgen
data_RbSc(WO4)2
_symmetry_space_group_name_H-M   'P 1'
_cell_length_a   10.91725200
_cell_length_b   10.25892200
_cell_length_c   7.38975964
_cell_angle_alpha   90.00000000
_cell_angle_beta   130.36639718
_cell_angle_gamma   90.00000000
_symmetry_Int_Tables_number   1
_chemical_formula_structural   RbSc(WO4)2
_chemical_formula_sum   'Rb4 Sc4 W8 O32'
_cell_volume   630.59971845
_cell_formula_units_Z   4
loop_
 _symmetry_equiv_pos_site_id
 _symmetry_equiv_pos_as_xyz
  1  'x, y, z'
loop_
 _atom_type_symbol
 _atom_type_oxidation_number
  Rb+  1.0
  Sc3+  3.0
  W6+  6.0
  O2-  -2.0
loop_
 _atom_site_type_symbol
 _atom_site_label
 _atom_site_symmetry_multiplicity
 _atom_site_fract_x
 _atom_site_fract_y
 _atom_site_fract_z
 _atom_site_occupancy
  Rb+  Rb0  1  0.00000000  0.80121000  0.25000000  1
  Rb+  Rb1  1  0.00000000  0.19879000  0.75000000  1
  Rb+  Rb2  1  0.50000000  0.30121000  0.25000000  1
  Rb+  Rb3  1  0.50000000  0.69879000  0.75000000  1
  Sc3+  Sc4  1  0.00000000  0.21960000  0.25000000  1
  Sc3+  Sc5  1  0.00000000  0.78040000  0.75000000  1
  Sc3+  Sc6  1  0.50000000  0.71960000  0.25000000  1
  Sc3+  Sc7  1  0.50000000  0.28040000  0.75000000  1
  W6+  W8  1  0.19688700  0.49359800  0.20881500  1
  W6+  W9  1  0.80311300  0.50640200  0.79118500  1
  W6+  W10  1  0.80311300  0.49359800  0.29118500  1
  W6+  W11  1  0.19688700  0.50640200  0.70881500  1
  W6+  W12  1  0.69688700  0.99359800  0.20881500  1
  W6+  W13  1  0.30311300  0.00640200  0.79118500  1
  W6+  W14  1  0.30311300  0.99359800  0.29118500  1
  W6+  W15  1  0.69688700  0.00640200  0.70881500  1
  O2-  O16  1  0.18781050  0.56881250  0.43757000  1
  O2-  O17  1  0.81218950  0.43118750  0.56243000  1
  O2-  O18  1  0.81218950  0.56881250  0.06243000  1
  O2-  O19  1  0.18781050  0.43118750  0.93757000  1
  O2-  O20  1  0.69494100  0.34780600  0.10701200  1
  O2-  O21  1  0.30505900  0.65219400  0.89298800  1
  O2-  O22  1  0.30505900  0.34780600  0.39298800  1
  O2-  O23  1  0.69494100  0.65219400  0.60701200  1
  O2-  O24  1  0.98788400  0.38498400  0.04791300  1
  O2-  O25  1  0.01211600  0.61501600  0.95208700  1
  O2-  O26  1  0.01211600  0.38498400  0.45208700  1
  O2-  O27  1  0.98788400  0.61501600  0.54791300  1
  O2-  O28  1  0.36576350  0.59808650  0.29623500  1
  O2-  O29  1  0.63423650  0.40191350  0.70376500  1
  O2-  O30  1  0.63423650  0.59808650  0.20376500  1
  O2-  O31  1  0.36576350  0.40191350  0.79623500  1
  O2-  O32  1  0.68781050  0.06881250  0.43757000  1
  O2-  O33  1  0.31218950  0.93118750  0.56243000  1
  O2-  O34  1  0.31218950  0.06881250  0.06243000  1
  O2-  O35  1  0.68781050  0.93118750  0.93757000  1
  O2-  O36  1  0.19494100  0.84780600  0.10701200  1
  O2-  O37  1  0.80505900  0.15219400  0.89298800  1
  O2-  O38  1  0.80505900  0.84780600  0.39298800  1
  O2-  O39  1  0.19494100  0.15219400  0.60701200  1
  O2-  O40  1  0.48788400  0.88498400  0.04791300  1
  O2-  O41  1  0.51211600  0.11501600  0.95208700  1
  O2-  O42  1  0.51211600  0.88498400  0.45208700  1
  O2-  O43  1  0.48788400  0.11501600  0.54791300  1
  O2-  O44  1  0.86576350  0.09808650  0.29623500  1
  O2-  O45  1  0.13423650  0.90191350  0.70376500  1
  O2-  O46  1  0.13423650  0.09808650  0.20376500  1
  O2-  O47  1  0.86576350  0.90191350  0.79623500  1
