# generated using pymatgen
data_RbTa(BO3)2
_symmetry_space_group_name_H-M   'P 1'
_cell_length_a   3.93750400
_cell_length_b   7.57800200
_cell_length_c   9.87155400
_cell_angle_alpha   90.00000000
_cell_angle_beta   90.00000000
_cell_angle_gamma   90.00000000
_symmetry_Int_Tables_number   1
_chemical_formula_structural   RbTa(BO3)2
_chemical_formula_sum   'Rb2 Ta2 B4 O12'
_cell_volume   294.55150705
_cell_formula_units_Z   2
loop_
 _symmetry_equiv_pos_site_id
 _symmetry_equiv_pos_as_xyz
  1  'x, y, z'
loop_
 _atom_type_symbol
 _atom_type_oxidation_number
  Rb+  1.0
  Ta5+  5.0
  B3+  3.0
  O2-  -2.0
loop_
 _atom_site_type_symbol
 _atom_site_label
 _atom_site_symmetry_multiplicity
 _atom_site_fract_x
 _atom_site_fract_y
 _atom_site_fract_z
 _atom_site_occupancy
  Rb+  Rb0  1  0.43441800  0.50000000  0.89163100  1
  Rb+  Rb1  1  0.56558200  0.00000000  0.39163100  1
  Ta5+  Ta2  1  0.09261400  0.50000000  0.49751300  1
  Ta5+  Ta3  1  0.90738600  0.00000000  0.99751300  1
  B3+  B4  1  0.01017700  0.83559000  0.71014300  1
  B3+  B5  1  0.98982300  0.66441000  0.21014300  1
  B3+  B6  1  0.98982300  0.33559000  0.21014300  1
  B3+  B7  1  0.01017700  0.16441000  0.71014300  1
  O2-  O8  1  0.05799100  0.67986500  0.34493500  1
  O2-  O9  1  0.94200900  0.82013500  0.84493500  1
  O2-  O10  1  0.94200900  0.17986500  0.84493500  1
  O2-  O11  1  0.05799100  0.32013500  0.34493500  1
  O2-  O12  1  0.96803400  0.50000000  0.14419400  1
  O2-  O13  1  0.03196600  0.00000000  0.64419400  1
  O2-  O14  1  0.56869400  0.50000000  0.49786700  1
  O2-  O15  1  0.43130600  0.00000000  0.99786700  1
  O2-  O16  1  0.06485000  0.68955900  0.63300900  1
  O2-  O17  1  0.93515000  0.81044100  0.13300900  1
  O2-  O18  1  0.93515000  0.18955900  0.13300900  1
  O2-  O19  1  0.06485000  0.31044100  0.63300900  1
