# generated using pymatgen
data_RbTlO
_symmetry_space_group_name_H-M   'P 1'
_cell_length_a   13.67911600
_cell_length_b   3.78260000
_cell_length_c   6.54852942
_cell_angle_alpha   90.00000000
_cell_angle_beta   106.90697845
_cell_angle_gamma   90.00000000
_symmetry_Int_Tables_number   1
_chemical_formula_structural   RbTlO
_chemical_formula_sum   'Rb4 Tl4 O4'
_cell_volume   324.19289438
_cell_formula_units_Z   4
loop_
 _symmetry_equiv_pos_site_id
 _symmetry_equiv_pos_as_xyz
  1  'x, y, z'
loop_
 _atom_type_symbol
 _atom_type_oxidation_number
  Rb+  1.0
  Tl+  1.0
  O2-  -2.0
loop_
 _atom_site_type_symbol
 _atom_site_label
 _atom_site_symmetry_multiplicity
 _atom_site_fract_x
 _atom_site_fract_y
 _atom_site_fract_z
 _atom_site_occupancy
  Rb+  Rb0  1  0.37390000  0.50000000  0.65533000  1
  Rb+  Rb1  1  0.12610000  0.00000000  0.34467000  1
  Rb+  Rb2  1  0.87390000  0.00000000  0.65533000  1
  Rb+  Rb3  1  0.62610000  0.50000000  0.34467000  1
  Tl+  Tl4  1  0.14473900  0.50000000  0.85447900  1
  Tl+  Tl5  1  0.35526100  0.00000000  0.14552100  1
  Tl+  Tl6  1  0.64473900  0.00000000  0.85447900  1
  Tl+  Tl7  1  0.85526100  0.50000000  0.14552100  1
  O2-  O8  1  0.24934000  0.00000000  0.78795400  1
  O2-  O9  1  0.25066000  0.50000000  0.21204600  1
  O2-  O10  1  0.74934000  0.50000000  0.78795400  1
  O2-  O11  1  0.75066000  0.00000000  0.21204600  1
