# generated using pymatgen
data_RbY(WO4)2
_symmetry_space_group_name_H-M   'P 1'
_cell_length_a   10.92555200
_cell_length_b   10.67392600
_cell_length_c   7.50740817
_cell_angle_alpha   90.00000000
_cell_angle_beta   130.12411957
_cell_angle_gamma   90.00000000
_symmetry_Int_Tables_number   1
_chemical_formula_structural   RbY(WO4)2
_chemical_formula_sum   'Rb4 Y4 W8 O32'
_cell_volume   669.45347324
_cell_formula_units_Z   4
loop_
 _symmetry_equiv_pos_site_id
 _symmetry_equiv_pos_as_xyz
  1  'x, y, z'
loop_
 _atom_type_symbol
 _atom_type_oxidation_number
  Rb+  1.0
  Y3+  3.0
  W6+  6.0
  O2-  -2.0
loop_
 _atom_site_type_symbol
 _atom_site_label
 _atom_site_symmetry_multiplicity
 _atom_site_fract_x
 _atom_site_fract_y
 _atom_site_fract_z
 _atom_site_occupancy
  Rb+  Rb0  1  0.00000000  0.80042100  0.25000000  1
  Rb+  Rb1  1  0.00000000  0.19957900  0.75000000  1
  Rb+  Rb2  1  0.50000000  0.30042100  0.25000000  1
  Rb+  Rb3  1  0.50000000  0.69957900  0.75000000  1
  Y3+  Y4  1  0.00000000  0.22423000  0.25000000  1
  Y3+  Y5  1  0.00000000  0.77577000  0.75000000  1
  Y3+  Y6  1  0.50000000  0.72423000  0.25000000  1
  Y3+  Y7  1  0.50000000  0.27577000  0.75000000  1
  W6+  W8  1  0.19416100  0.49469600  0.21866500  1
  W6+  W9  1  0.80583900  0.50530400  0.78133500  1
  W6+  W10  1  0.80583900  0.49469600  0.28133500  1
  W6+  W11  1  0.19416100  0.50530400  0.71866500  1
  W6+  W12  1  0.69416100  0.99469600  0.21866500  1
  W6+  W13  1  0.30583900  0.00530400  0.78133500  1
  W6+  W14  1  0.30583900  0.99469600  0.28133500  1
  W6+  W15  1  0.69416100  0.00530400  0.71866500  1
  O2-  O16  1  0.18723600  0.56655700  0.44046500  1
  O2-  O17  1  0.81276400  0.43344300  0.55953500  1
  O2-  O18  1  0.81276400  0.56655700  0.05953500  1
  O2-  O19  1  0.18723600  0.43344300  0.94046500  1
  O2-  O20  1  0.71801350  0.34333850  0.12483600  1
  O2-  O21  1  0.28198650  0.65666150  0.87516400  1
  O2-  O22  1  0.28198650  0.34333850  0.37516400  1
  O2-  O23  1  0.71801350  0.65666150  0.62483600  1
  O2-  O24  1  0.98037300  0.38986600  0.03350500  1
  O2-  O25  1  0.01962700  0.61013400  0.96649500  1
  O2-  O26  1  0.01962700  0.38986600  0.46649500  1
  O2-  O27  1  0.98037300  0.61013400  0.53350500  1
  O2-  O28  1  0.36908100  0.58465700  0.30791300  1
  O2-  O29  1  0.63091900  0.41534300  0.69208700  1
  O2-  O30  1  0.63091900  0.58465700  0.19208700  1
  O2-  O31  1  0.36908100  0.41534300  0.80791300  1
  O2-  O32  1  0.68723600  0.06655700  0.44046500  1
  O2-  O33  1  0.31276400  0.93344300  0.55953500  1
  O2-  O34  1  0.31276400  0.06655700  0.05953500  1
  O2-  O35  1  0.68723600  0.93344300  0.94046500  1
  O2-  O36  1  0.21801350  0.84333850  0.12483600  1
  O2-  O37  1  0.78198650  0.15666150  0.87516400  1
  O2-  O38  1  0.78198650  0.84333850  0.37516400  1
  O2-  O39  1  0.21801350  0.15666150  0.62483600  1
  O2-  O40  1  0.48037300  0.88986600  0.03350500  1
  O2-  O41  1  0.51962700  0.11013400  0.96649500  1
  O2-  O42  1  0.51962700  0.88986600  0.46649500  1
  O2-  O43  1  0.48037300  0.11013400  0.53350500  1
  O2-  O44  1  0.86908100  0.08465700  0.30791300  1
  O2-  O45  1  0.13091900  0.91534300  0.69208700  1
  O2-  O46  1  0.13091900  0.08465700  0.19208700  1
  O2-  O47  1  0.86908100  0.91534300  0.80791300  1
