# generated using pymatgen
data_Sr(AsO3)2
_symmetry_space_group_name_H-M   'P 1'
_cell_length_a   4.94946164
_cell_length_b   4.94946164
_cell_length_c   10.96952800
_cell_angle_alpha   90.00000000
_cell_angle_beta   90.00000000
_cell_angle_gamma   120.00000000
_symmetry_Int_Tables_number   1
_chemical_formula_structural   Sr(AsO3)2
_chemical_formula_sum   'Sr2 As4 O12'
_cell_volume   232.72042341
_cell_formula_units_Z   2
loop_
 _symmetry_equiv_pos_site_id
 _symmetry_equiv_pos_as_xyz
  1  'x, y, z'
loop_
 _atom_type_symbol
 _atom_type_oxidation_number
  Sr2+  2.0
  As5+  5.0
  O2-  -2.0
loop_
 _atom_site_type_symbol
 _atom_site_label
 _atom_site_symmetry_multiplicity
 _atom_site_fract_x
 _atom_site_fract_y
 _atom_site_fract_z
 _atom_site_occupancy
  Sr2+  Sr0  1  0.00000000  0.00000000  0.75000000  1
  Sr2+  Sr1  1  0.00000000  0.00000000  0.25000000  1
  As5+  As2  1  0.33333333  0.66666667  0.50000000  1
  As5+  As3  1  0.66666667  0.33333333  0.50000000  1
  As5+  As4  1  0.33333333  0.66666667  0.00000000  1
  As5+  As5  1  0.66666667  0.33333333  0.00000000  1
  O2-  O6  1  0.61600800  0.00000000  0.59674500  1
  O2-  O7  1  0.00000000  0.61600800  0.59674500  1
  O2-  O8  1  0.38399200  0.38399200  0.59674500  1
  O2-  O9  1  0.61600800  0.00000000  0.90325500  1
  O2-  O10  1  0.00000000  0.61600800  0.90325500  1
  O2-  O11  1  0.38399200  0.38399200  0.90325500  1
  O2-  O12  1  0.00000000  0.38399200  0.09674500  1
  O2-  O13  1  0.38399200  0.00000000  0.09674500  1
  O2-  O14  1  0.61600800  0.61600800  0.09674500  1
  O2-  O15  1  0.38399200  0.00000000  0.40325500  1
  O2-  O16  1  0.00000000  0.38399200  0.40325500  1
  O2-  O17  1  0.61600800  0.61600800  0.40325500  1
