# generated using pymatgen
data_Sr2CdWO6
_symmetry_space_group_name_H-M   'P 1'
_cell_length_a   5.80764000
_cell_length_b   5.95888500
_cell_length_c   10.09015460
_cell_angle_alpha   90.00000000
_cell_angle_beta   125.09140886
_cell_angle_gamma   90.00000000
_symmetry_Int_Tables_number   1
_chemical_formula_structural   Sr2CdWO6
_chemical_formula_sum   'Sr4 Cd2 W2 O12'
_cell_volume   285.72027322
_cell_formula_units_Z   2
loop_
 _symmetry_equiv_pos_site_id
 _symmetry_equiv_pos_as_xyz
  1  'x, y, z'
loop_
 _atom_type_symbol
 _atom_type_oxidation_number
  Sr2+  2.0
  Cd2+  2.0
  W6+  6.0
  O2-  -2.0
loop_
 _atom_site_type_symbol
 _atom_site_label
 _atom_site_symmetry_multiplicity
 _atom_site_fract_x
 _atom_site_fract_y
 _atom_site_fract_z
 _atom_site_occupancy
  Sr2+  Sr0  1  0.26218500  0.95367200  0.75197900  1
  Sr2+  Sr1  1  0.73781500  0.45367200  0.74802100  1
  Sr2+  Sr2  1  0.73781500  0.04632800  0.24802100  1
  Sr2+  Sr3  1  0.26218500  0.54632800  0.25197900  1
  Cd2+  Cd4  1  0.50000000  0.00000000  0.50000000  1
  Cd2+  Cd5  1  0.50000000  0.50000000  0.00000000  1
  W6+  W6  1  0.00000000  0.50000000  0.50000000  1
  W6+  W7  1  0.00000000  0.00000000  0.00000000  1
  O2-  O8  1  0.23139400  0.23033800  0.55116600  1
  O2-  O9  1  0.76860600  0.73033800  0.94883400  1
  O2-  O10  1  0.76860600  0.76966200  0.44883400  1
  O2-  O11  1  0.23139400  0.26966200  0.05116600  1
  O2-  O12  1  0.31357500  0.68491600  0.54082300  1
  O2-  O13  1  0.68642500  0.18491600  0.95917700  1
  O2-  O14  1  0.68642500  0.31508400  0.45917700  1
  O2-  O15  1  0.31357500  0.81508400  0.04082300  1
  O2-  O16  1  0.85932800  0.03167300  0.77192600  1
  O2-  O17  1  0.14067200  0.53167300  0.72807400  1
  O2-  O18  1  0.14067200  0.96832700  0.22807400  1
  O2-  O19  1  0.85932800  0.46832700  0.27192600  1
