# generated using pymatgen
data_Sr2CaWO6
_symmetry_space_group_name_H-M   'P 1'
_cell_length_a   5.83883236
_cell_length_b   5.94588700
_cell_length_c   10.11935527
_cell_angle_alpha   90.00000000
_cell_angle_beta   124.98509793
_cell_angle_gamma   90.00000000
_symmetry_Int_Tables_number   1
_chemical_formula_structural   Sr2CaWO6
_chemical_formula_sum   'Sr4 Ca2 W2 O12'
_cell_volume   287.83201041
_cell_formula_units_Z   2
loop_
 _symmetry_equiv_pos_site_id
 _symmetry_equiv_pos_as_xyz
  1  'x, y, z'
loop_
 _atom_type_symbol
 _atom_type_oxidation_number
  Sr2+  2.0
  Ca2+  2.0
  W6+  6.0
  O2-  -2.0
loop_
 _atom_site_type_symbol
 _atom_site_label
 _atom_site_symmetry_multiplicity
 _atom_site_fract_x
 _atom_site_fract_y
 _atom_site_fract_z
 _atom_site_occupancy
  Sr2+  Sr0  1  0.75870200  0.04163100  0.24907900  1
  Sr2+  Sr1  1  0.75870200  0.45836900  0.74907900  1
  Sr2+  Sr2  1  0.24129800  0.95836900  0.75092100  1
  Sr2+  Sr3  1  0.24129800  0.54163100  0.25092100  1
  Ca2+  Ca4  1  0.50000000  0.50000000  0.00000000  1
  Ca2+  Ca5  1  0.50000000  0.00000000  0.50000000  1
  W6+  W6  1  0.00000000  0.50000000  0.50000000  1
  W6+  W7  1  0.00000000  0.00000000  0.00000000  1
  O2-  O8  1  0.31181600  0.52818900  0.72712700  1
  O2-  O9  1  0.31181600  0.97181100  0.22712700  1
  O2-  O10  1  0.68818400  0.47181100  0.27287300  1
  O2-  O11  1  0.68818400  0.02818900  0.77287300  1
  O2-  O12  1  0.22779600  0.31182800  0.45848800  1
  O2-  O13  1  0.22779600  0.18817200  0.95848800  1
  O2-  O14  1  0.77220400  0.68817200  0.54151200  1
  O2-  O15  1  0.77220400  0.81182800  0.04151200  1
  O2-  O16  1  0.13511000  0.76912000  0.45132500  1
  O2-  O17  1  0.13511000  0.73088000  0.95132500  1
  O2-  O18  1  0.86489000  0.23088000  0.54867500  1
  O2-  O19  1  0.86489000  0.26912000  0.04867500  1
