# generated using pymatgen
data_Sr2LaBiO6
_symmetry_space_group_name_H-M   'P 1'
_cell_length_a   6.05209991
_cell_length_b   6.21867757
_cell_length_c   10.54966071
_cell_angle_alpha   90.00000000
_cell_angle_beta   124.69732222
_cell_angle_gamma   90.00000000
_symmetry_Int_Tables_number   1
_chemical_formula_structural   Sr2LaBiO6
_chemical_formula_sum   'Sr4 La2 Bi2 O12'
_cell_volume   326.44091592
_cell_formula_units_Z   2
loop_
 _symmetry_equiv_pos_site_id
 _symmetry_equiv_pos_as_xyz
  1  'x, y, z'
loop_
 _atom_type_symbol
 _atom_type_oxidation_number
  Sr2+  2.0
  La3+  3.0
  Bi5+  5.0
  O2-  -2.0
loop_
 _atom_site_type_symbol
 _atom_site_label
 _atom_site_symmetry_multiplicity
 _atom_site_fract_x
 _atom_site_fract_y
 _atom_site_fract_z
 _atom_site_occupancy
  Sr2+  Sr0  1  0.23681724  0.95180593  0.24945200  1
  Sr2+  Sr1  1  0.76318276  0.45180593  0.25054800  1
  Sr2+  Sr2  1  0.76318276  0.04819407  0.75054800  1
  Sr2+  Sr3  1  0.23681724  0.54819407  0.74945200  1
  La3+  La4  1  0.50000000  0.50000000  0.50000000  1
  La3+  La5  1  0.50000000  0.00000000  0.00000000  1
  Bi5+  Bi6  1  0.00000000  0.00000000  0.50000000  1
  Bi5+  Bi7  1  0.00000000  0.50000000  0.00000000  1
  O2-  O8  1  0.87573297  0.28675854  0.55816837  1
  O2-  O9  1  0.12426703  0.78675854  0.94183163  1
  O2-  O10  1  0.12426703  0.71324146  0.44183163  1
  O2-  O11  1  0.87573297  0.21324146  0.05816837  1
  O2-  O12  1  0.76687931  0.81081840  0.55374608  1
  O2-  O13  1  0.23312069  0.31081840  0.94625392  1
  O2-  O14  1  0.23312069  0.18918160  0.44625392  1
  O2-  O15  1  0.76687931  0.68918160  0.05374608  1
  O2-  O16  1  0.34079681  0.54418985  0.23537690  1
  O2-  O17  1  0.65920319  0.04418985  0.26462310  1
  O2-  O18  1  0.65920319  0.45581015  0.76462310  1
  O2-  O19  1  0.34079681  0.95581015  0.73537690  1
