# generated using pymatgen
data_Sr2Zr7O16
_symmetry_space_group_name_H-M   'P 1'
_cell_length_a   6.49607169
_cell_length_b   6.49607169
_cell_length_c   27.14170811
_cell_angle_alpha   90.00000000
_cell_angle_beta   90.00000000
_cell_angle_gamma   120.00000000
_symmetry_Int_Tables_number   1
_chemical_formula_structural   Sr2Zr7O16
_chemical_formula_sum   'Sr6 Zr21 O48'
_cell_volume   991.90350751
_cell_formula_units_Z   3
loop_
 _symmetry_equiv_pos_site_id
 _symmetry_equiv_pos_as_xyz
  1  'x, y, z'
loop_
 _atom_type_symbol
 _atom_type_oxidation_number
  Sr2+  2.0
  Zr4+  4.0
  O2-  -2.0
loop_
 _atom_site_type_symbol
 _atom_site_label
 _atom_site_symmetry_multiplicity
 _atom_site_fract_x
 _atom_site_fract_y
 _atom_site_fract_z
 _atom_site_occupancy
  Sr2+  Sr0  1  0.00000000  0.00000000  0.33317600  1
  Sr2+  Sr1  1  0.66666667  0.33333333  0.00015733  1
  Sr2+  Sr2  1  0.66666667  0.33333333  0.66650933  1
  Sr2+  Sr3  1  0.33333333  0.66666667  0.33349067  1
  Sr2+  Sr4  1  0.33333333  0.66666667  0.99984267  1
  Sr2+  Sr5  1  0.00000000  0.00000000  0.66682400  1
  Zr4+  Zr6  1  0.37253133  0.00099067  0.11511867  1
  Zr4+  Zr7  1  0.03820733  0.70586467  0.21821467  1
  Zr4+  Zr8  1  0.66765733  0.96179267  0.21821467  1
  Zr4+  Zr9  1  0.00000000  0.00000000  0.00000000  1
  Zr4+  Zr10  1  0.99900933  0.37154067  0.11511867  1
  Zr4+  Zr11  1  0.62845933  0.62746867  0.11511867  1
  Zr4+  Zr12  1  0.29413533  0.33234267  0.21821467  1
  Zr4+  Zr13  1  0.03919800  0.33432400  0.44845200  1
  Zr4+  Zr14  1  0.70487400  0.03919800  0.55154800  1
  Zr4+  Zr15  1  0.33432400  0.29512600  0.55154800  1
  Zr4+  Zr16  1  0.66666667  0.33333333  0.33333333  1
  Zr4+  Zr17  1  0.66567600  0.70487400  0.44845200  1
  Zr4+  Zr18  1  0.29512600  0.96080200  0.44845200  1
  Zr4+  Zr19  1  0.96080200  0.66567600  0.55154800  1
  Zr4+  Zr20  1  0.70586467  0.66765733  0.78178533  1
  Zr4+  Zr21  1  0.37154067  0.37253133  0.88488133  1
  Zr4+  Zr22  1  0.00099067  0.62845933  0.88488133  1
  Zr4+  Zr23  1  0.33333333  0.66666667  0.66666667  1
  Zr4+  Zr24  1  0.33234267  0.03820733  0.78178533  1
  Zr4+  Zr25  1  0.96179267  0.29413533  0.78178533  1
  Zr4+  Zr26  1  0.62746867  0.99900933  0.88488133  1
  O2-  O27  1  0.28094100  0.00730600  0.04233500  1
  O2-  O28  1  0.38807833  0.04136967  0.19658867  1
  O2-  O29  1  0.01337533  0.72141167  0.13674467  1
  O2-  O30  1  0.94030167  0.61427433  0.29099833  1
  O2-  O31  1  0.67397267  0.05969833  0.29099833  1
  O2-  O32  1  0.70803633  0.98662467  0.13674467  1
  O2-  O33  1  0.66666667  0.33333333  0.09674433  1
  O2-  O34  1  0.33333333  0.66666667  0.23893067  1
  O2-  O35  1  0.00000000  0.00000000  0.23658900  1
  O2-  O36  1  0.33333333  0.66666667  0.09440267  1
  O2-  O37  1  0.95863033  0.34670867  0.19658867  1
  O2-  O38  1  0.99269400  0.27363500  0.04233500  1
  O2-  O39  1  0.72636500  0.71905900  0.04233500  1
  O2-  O40  1  0.65329133  0.61192167  0.19658867  1
  O2-  O41  1  0.27858833  0.29196367  0.13674467  1
  O2-  O42  1  0.38572567  0.32602733  0.29099833  1
  O2-  O43  1  0.94760767  0.34063933  0.37566833  1
  O2-  O44  1  0.05474500  0.37470300  0.52992200  1
  O2-  O45  1  0.68004200  0.05474500  0.47007800  1
  O2-  O46  1  0.60696833  0.94760767  0.62433167  1
  O2-  O47  1  0.34063933  0.39303167  0.62433167  1
  O2-  O48  1  0.37470300  0.31995800  0.47007800  1
  O2-  O49  1  0.33333333  0.66666667  0.43007767  1
  O2-  O50  1  0.00000000  0.00000000  0.57226400  1
  O2-  O51  1  0.66666667  0.33333333  0.56992233  1
  O2-  O52  1  0.00000000  0.00000000  0.42773600  1
  O2-  O53  1  0.62529700  0.68004200  0.52992200  1
  O2-  O54  1  0.65936067  0.60696833  0.37566833  1
  O2-  O55  1  0.39303167  0.05239233  0.37566833  1
  O2-  O56  1  0.31995800  0.94525500  0.52992200  1
  O2-  O57  1  0.94525500  0.62529700  0.47007800  1
  O2-  O58  1  0.05239233  0.65936067  0.62433167  1
  O2-  O59  1  0.61427433  0.67397267  0.70900167  1
  O2-  O60  1  0.72141167  0.70803633  0.86325533  1
  O2-  O61  1  0.34670867  0.38807833  0.80341133  1
  O2-  O62  1  0.27363500  0.28094100  0.95766500  1
  O2-  O63  1  0.00730600  0.72636500  0.95766500  1
  O2-  O64  1  0.04136967  0.65329133  0.80341133  1
  O2-  O65  1  0.00000000  0.00000000  0.76341100  1
  O2-  O66  1  0.66666667  0.33333333  0.90559733  1
  O2-  O67  1  0.33333333  0.66666667  0.90325567  1
  O2-  O68  1  0.66666667  0.33333333  0.76106933  1
  O2-  O69  1  0.29196367  0.01337533  0.86325533  1
  O2-  O70  1  0.32602733  0.94030167  0.70900167  1
  O2-  O71  1  0.05969833  0.38572567  0.70900167  1
  O2-  O72  1  0.98662467  0.27858833  0.86325533  1
  O2-  O73  1  0.61192167  0.95863033  0.80341133  1
  O2-  O74  1  0.71905900  0.99269400  0.95766500  1
