# generated using pymatgen
data_Sr3LiSbO6
_symmetry_space_group_name_H-M   'P 1'
_cell_length_a   9.87350845
_cell_length_b   9.87350845
_cell_length_c   11.31443418
_cell_angle_alpha   90.00000000
_cell_angle_beta   90.00000000
_cell_angle_gamma   120.00000000
_symmetry_Int_Tables_number   1
_chemical_formula_structural   Sr3LiSbO6
_chemical_formula_sum   'Sr18 Li6 Sb6 O36'
_cell_volume   955.22675157
_cell_formula_units_Z   6
loop_
 _symmetry_equiv_pos_site_id
 _symmetry_equiv_pos_as_xyz
  1  'x, y, z'
loop_
 _atom_type_symbol
 _atom_type_oxidation_number
  Sr2+  2.0
  Li+  1.0
  Sb5+  5.0
  O2-  -2.0
loop_
 _atom_site_type_symbol
 _atom_site_label
 _atom_site_symmetry_multiplicity
 _atom_site_fract_x
 _atom_site_fract_y
 _atom_site_fract_z
 _atom_site_occupancy
  Sr2+  Sr0  1  0.31488967  0.98155633  0.58333333  1
  Sr2+  Sr1  1  0.01844367  0.33333333  0.58333333  1
  Sr2+  Sr2  1  0.66666667  0.68511033  0.58333333  1
  Sr2+  Sr3  1  0.98155633  0.66666667  0.41666667  1
  Sr2+  Sr4  1  0.33333333  0.31488967  0.41666667  1
  Sr2+  Sr5  1  0.68511033  0.01844367  0.41666667  1
  Sr2+  Sr6  1  0.98155633  0.31488967  0.91666667  1
  Sr2+  Sr7  1  0.68511033  0.66666667  0.91666667  1
  Sr2+  Sr8  1  0.33333333  0.01844367  0.91666667  1
  Sr2+  Sr9  1  0.64822300  0.00000000  0.75000000  1
  Sr2+  Sr10  1  0.00000000  0.64822300  0.75000000  1
  Sr2+  Sr11  1  0.35177700  0.35177700  0.75000000  1
  Sr2+  Sr12  1  0.64822300  0.64822300  0.25000000  1
  Sr2+  Sr13  1  0.35177700  0.00000000  0.25000000  1
  Sr2+  Sr14  1  0.00000000  0.35177700  0.25000000  1
  Sr2+  Sr15  1  0.31488967  0.33333333  0.08333333  1
  Sr2+  Sr16  1  0.66666667  0.98155633  0.08333333  1
  Sr2+  Sr17  1  0.01844367  0.68511033  0.08333333  1
  Li+  Li18  1  0.00000000  0.00000000  0.25000000  1
  Li+  Li19  1  0.00000000  0.00000000  0.75000000  1
  Li+  Li20  1  0.66666667  0.33333333  0.58333333  1
  Li+  Li21  1  0.66666667  0.33333333  0.08333333  1
  Li+  Li22  1  0.33333333  0.66666667  0.91666667  1
  Li+  Li23  1  0.33333333  0.66666667  0.41666667  1
  Sb5+  Sb24  1  0.00000000  0.00000000  0.00000000  1
  Sb5+  Sb25  1  0.00000000  0.00000000  0.50000000  1
  Sb5+  Sb26  1  0.66666667  0.33333333  0.33333333  1
  Sb5+  Sb27  1  0.66666667  0.33333333  0.83333333  1
  Sb5+  Sb28  1  0.33333333  0.66666667  0.66666667  1
  Sb5+  Sb29  1  0.33333333  0.66666667  0.16666667  1
  O2-  O30  1  0.51402233  0.15718667  0.43819267  1
  O2-  O31  1  0.84281333  0.35683567  0.43819267  1
  O2-  O32  1  0.64316433  0.48597767  0.43819267  1
  O2-  O33  1  0.84735567  0.02350233  0.60485933  1
  O2-  O34  1  0.97649767  0.82385333  0.60485933  1
  O2-  O35  1  0.17614667  0.15264433  0.60485933  1
  O2-  O36  1  0.48597767  0.84281333  0.56180733  1
  O2-  O37  1  0.15718667  0.64316433  0.56180733  1
  O2-  O38  1  0.35683567  0.51402233  0.56180733  1
  O2-  O39  1  0.15264433  0.97649767  0.39514067  1
  O2-  O40  1  0.02350233  0.17614667  0.39514067  1
  O2-  O41  1  0.82385333  0.84735567  0.39514067  1
  O2-  O42  1  0.18068900  0.49052000  0.77152600  1
  O2-  O43  1  0.50948000  0.69016900  0.77152600  1
  O2-  O44  1  0.30983100  0.81931100  0.77152600  1
  O2-  O45  1  0.51402233  0.35683567  0.93819267  1
  O2-  O46  1  0.64316433  0.15718667  0.93819267  1
  O2-  O47  1  0.84281333  0.48597767  0.93819267  1
  O2-  O48  1  0.15264433  0.17614667  0.89514067  1
  O2-  O49  1  0.82385333  0.97649767  0.89514067  1
  O2-  O50  1  0.02350233  0.84735567  0.89514067  1
  O2-  O51  1  0.81931100  0.30983100  0.72847400  1
  O2-  O52  1  0.69016900  0.50948000  0.72847400  1
  O2-  O53  1  0.49052000  0.18068900  0.72847400  1
  O2-  O54  1  0.84735567  0.82385333  0.10485933  1
  O2-  O55  1  0.17614667  0.02350233  0.10485933  1
  O2-  O56  1  0.97649767  0.15264433  0.10485933  1
  O2-  O57  1  0.18068900  0.69016900  0.27152600  1
  O2-  O58  1  0.30983100  0.49052000  0.27152600  1
  O2-  O59  1  0.50948000  0.81931100  0.27152600  1
  O2-  O60  1  0.81931100  0.50948000  0.22847400  1
  O2-  O61  1  0.49052000  0.30983100  0.22847400  1
  O2-  O62  1  0.69016900  0.18068900  0.22847400  1
  O2-  O63  1  0.48597767  0.64316433  0.06180733  1
  O2-  O64  1  0.35683567  0.84281333  0.06180733  1
  O2-  O65  1  0.15718667  0.51402233  0.06180733  1
