# generated using pymatgen
data_Sr3LiTaO6
_symmetry_space_group_name_H-M   'P 1'
_cell_length_a   9.90436065
_cell_length_b   9.90436065
_cell_length_c   11.28500664
_cell_angle_alpha   90.00000000
_cell_angle_beta   90.00000000
_cell_angle_gamma   120.00000000
_symmetry_Int_Tables_number   1
_chemical_formula_structural   Sr3LiTaO6
_chemical_formula_sum   'Sr18 Li6 Ta6 O36'
_cell_volume   958.70577397
_cell_formula_units_Z   6
loop_
 _symmetry_equiv_pos_site_id
 _symmetry_equiv_pos_as_xyz
  1  'x, y, z'
loop_
 _atom_type_symbol
 _atom_type_oxidation_number
  Sr2+  2.0
  Li+  1.0
  Ta5+  5.0
  O2-  -2.0
loop_
 _atom_site_type_symbol
 _atom_site_label
 _atom_site_symmetry_multiplicity
 _atom_site_fract_x
 _atom_site_fract_y
 _atom_site_fract_z
 _atom_site_occupancy
  Sr2+  Sr0  1  0.33333333  0.31437967  0.41666667  1
  Sr2+  Sr1  1  0.68562033  0.01895367  0.41666667  1
  Sr2+  Sr2  1  0.98104633  0.66666667  0.41666667  1
  Sr2+  Sr3  1  0.66666667  0.68562033  0.58333333  1
  Sr2+  Sr4  1  0.31437967  0.98104633  0.58333333  1
  Sr2+  Sr5  1  0.01895367  0.33333333  0.58333333  1
  Sr2+  Sr6  1  0.00000000  0.64771300  0.75000000  1
  Sr2+  Sr7  1  0.35228700  0.35228700  0.75000000  1
  Sr2+  Sr8  1  0.64771300  0.00000000  0.75000000  1
  Sr2+  Sr9  1  0.33333333  0.01895367  0.91666667  1
  Sr2+  Sr10  1  0.98104633  0.31437967  0.91666667  1
  Sr2+  Sr11  1  0.68562033  0.66666667  0.91666667  1
  Sr2+  Sr12  1  0.66666667  0.98104633  0.08333333  1
  Sr2+  Sr13  1  0.01895367  0.68562033  0.08333333  1
  Sr2+  Sr14  1  0.31437967  0.33333333  0.08333333  1
  Sr2+  Sr15  1  0.00000000  0.35228700  0.25000000  1
  Sr2+  Sr16  1  0.64771300  0.64771300  0.25000000  1
  Sr2+  Sr17  1  0.35228700  0.00000000  0.25000000  1
  Li+  Li18  1  0.00000000  0.00000000  0.25000000  1
  Li+  Li19  1  0.00000000  0.00000000  0.75000000  1
  Li+  Li20  1  0.66666667  0.33333333  0.58333333  1
  Li+  Li21  1  0.66666667  0.33333333  0.08333333  1
  Li+  Li22  1  0.33333333  0.66666667  0.91666667  1
  Li+  Li23  1  0.33333333  0.66666667  0.41666667  1
  Ta5+  Ta24  1  0.00000000  0.00000000  0.50000000  1
  Ta5+  Ta25  1  0.00000000  0.00000000  0.00000000  1
  Ta5+  Ta26  1  0.66666667  0.33333333  0.83333333  1
  Ta5+  Ta27  1  0.66666667  0.33333333  0.33333333  1
  Ta5+  Ta28  1  0.33333333  0.66666667  0.16666667  1
  Ta5+  Ta29  1  0.33333333  0.66666667  0.66666667  1
  O2-  O30  1  0.02417100  0.17613700  0.39553900  1
  O2-  O31  1  0.82386300  0.84803400  0.39553900  1
  O2-  O32  1  0.15196600  0.97582900  0.39553900  1
  O2-  O33  1  0.35750433  0.51470067  0.56220567  1
  O2-  O34  1  0.48529933  0.84280367  0.56220567  1
  O2-  O35  1  0.15719633  0.64249567  0.56220567  1
  O2-  O36  1  0.97582900  0.82386300  0.60446100  1
  O2-  O37  1  0.17613700  0.15196600  0.60446100  1
  O2-  O38  1  0.84803400  0.02417100  0.60446100  1
  O2-  O39  1  0.64249567  0.48529933  0.43779433  1
  O2-  O40  1  0.51470067  0.15719633  0.43779433  1
  O2-  O41  1  0.84280367  0.35750433  0.43779433  1
  O2-  O42  1  0.69083767  0.50947033  0.72887233  1
  O2-  O43  1  0.49052967  0.18136733  0.72887233  1
  O2-  O44  1  0.81863267  0.30916233  0.72887233  1
  O2-  O45  1  0.02417100  0.84803400  0.89553900  1
  O2-  O46  1  0.15196600  0.17613700  0.89553900  1
  O2-  O47  1  0.82386300  0.97582900  0.89553900  1
  O2-  O48  1  0.64249567  0.15719633  0.93779433  1
  O2-  O49  1  0.84280367  0.48529933  0.93779433  1
  O2-  O50  1  0.51470067  0.35750433  0.93779433  1
  O2-  O51  1  0.30916233  0.81863267  0.77112767  1
  O2-  O52  1  0.18136733  0.49052967  0.77112767  1
  O2-  O53  1  0.50947033  0.69083767  0.77112767  1
  O2-  O54  1  0.35750433  0.84280367  0.06220567  1
  O2-  O55  1  0.15719633  0.51470067  0.06220567  1
  O2-  O56  1  0.48529933  0.64249567  0.06220567  1
  O2-  O57  1  0.69083767  0.18136733  0.22887233  1
  O2-  O58  1  0.81863267  0.50947033  0.22887233  1
  O2-  O59  1  0.49052967  0.30916233  0.22887233  1
  O2-  O60  1  0.30916233  0.49052967  0.27112767  1
  O2-  O61  1  0.50947033  0.81863267  0.27112767  1
  O2-  O62  1  0.18136733  0.69083767  0.27112767  1
  O2-  O63  1  0.97582900  0.15196600  0.10446100  1
  O2-  O64  1  0.84803400  0.82386300  0.10446100  1
  O2-  O65  1  0.17613700  0.02417100  0.10446100  1
