# generated using pymatgen
data_Sr3MgPtO6
_symmetry_space_group_name_H-M   'P 1'
_cell_length_a   9.73710582
_cell_length_b   9.73710582
_cell_length_c   11.25328319
_cell_angle_alpha   90.00000000
_cell_angle_beta   90.00000000
_cell_angle_gamma   120.00000000
_symmetry_Int_Tables_number   1
_chemical_formula_structural   Sr3MgPtO6
_chemical_formula_sum   'Sr18 Mg6 Pt6 O36'
_cell_volume   923.99508095
_cell_formula_units_Z   6
loop_
 _symmetry_equiv_pos_site_id
 _symmetry_equiv_pos_as_xyz
  1  'x, y, z'
loop_
 _atom_type_symbol
 _atom_type_oxidation_number
  Sr2+  2.0
  Mg2+  2.0
  Pt4+  4.0
  O2-  -2.0
loop_
 _atom_site_type_symbol
 _atom_site_label
 _atom_site_symmetry_multiplicity
 _atom_site_fract_x
 _atom_site_fract_y
 _atom_site_fract_z
 _atom_site_occupancy
  Sr2+  Sr0  1  0.66666667  0.96861333  0.58333333  1
  Sr2+  Sr1  1  0.03138667  0.69805333  0.58333333  1
  Sr2+  Sr2  1  0.69805333  0.66666667  0.41666667  1
  Sr2+  Sr3  1  0.33333333  0.03138667  0.41666667  1
  Sr2+  Sr4  1  0.96861333  0.30194667  0.41666667  1
  Sr2+  Sr5  1  0.30194667  0.33333333  0.58333333  1
  Sr2+  Sr6  1  0.33333333  0.30194667  0.91666667  1
  Sr2+  Sr7  1  0.69805333  0.03138667  0.91666667  1
  Sr2+  Sr8  1  0.36472000  0.00000000  0.75000000  1
  Sr2+  Sr9  1  0.00000000  0.36472000  0.75000000  1
  Sr2+  Sr10  1  0.63528000  0.63528000  0.75000000  1
  Sr2+  Sr11  1  0.96861333  0.66666667  0.91666667  1
  Sr2+  Sr12  1  0.00000000  0.63528000  0.25000000  1
  Sr2+  Sr13  1  0.36472000  0.36472000  0.25000000  1
  Sr2+  Sr14  1  0.03138667  0.33333333  0.08333333  1
  Sr2+  Sr15  1  0.66666667  0.69805333  0.08333333  1
  Sr2+  Sr16  1  0.30194667  0.96861333  0.08333333  1
  Sr2+  Sr17  1  0.63528000  0.00000000  0.25000000  1
  Mg2+  Mg18  1  0.00000000  0.00000000  0.25000000  1
  Mg2+  Mg19  1  0.00000000  0.00000000  0.75000000  1
  Mg2+  Mg20  1  0.66666667  0.33333333  0.58333333  1
  Mg2+  Mg21  1  0.66666667  0.33333333  0.08333333  1
  Mg2+  Mg22  1  0.33333333  0.66666667  0.91666667  1
  Mg2+  Mg23  1  0.33333333  0.66666667  0.41666667  1
  Pt4+  Pt24  1  0.00000000  0.00000000  0.00000000  1
  Pt4+  Pt25  1  0.00000000  0.00000000  0.50000000  1
  Pt4+  Pt26  1  0.66666667  0.33333333  0.33333333  1
  Pt4+  Pt27  1  0.66666667  0.33333333  0.83333333  1
  Pt4+  Pt28  1  0.33333333  0.66666667  0.66666667  1
  Pt4+  Pt29  1  0.33333333  0.66666667  0.16666667  1
  O2-  O30  1  0.17277500  0.02124200  0.61605800  1
  O2-  O31  1  0.97875800  0.15153300  0.61605800  1
  O2-  O32  1  0.84846700  0.82722500  0.61605800  1
  O2-  O33  1  0.48486633  0.64542467  0.55060867  1
  O2-  O34  1  0.35457533  0.83944167  0.55060867  1
  O2-  O35  1  0.16055833  0.51513367  0.55060867  1
  O2-  O36  1  0.82722500  0.97875800  0.38394200  1
  O2-  O37  1  0.02124200  0.84846700  0.38394200  1
  O2-  O38  1  0.15153300  0.17277500  0.38394200  1
  O2-  O39  1  0.51513367  0.35457533  0.44939133  1
  O2-  O40  1  0.83944167  0.48486633  0.44939133  1
  O2-  O41  1  0.64542467  0.16055833  0.44939133  1
  O2-  O42  1  0.83944167  0.35457533  0.94939133  1
  O2-  O43  1  0.64542467  0.48486633  0.94939133  1
  O2-  O44  1  0.51513367  0.16055833  0.94939133  1
  O2-  O45  1  0.15153300  0.97875800  0.88394200  1
  O2-  O46  1  0.02124200  0.17277500  0.88394200  1
  O2-  O47  1  0.82722500  0.84846700  0.88394200  1
  O2-  O48  1  0.49389167  0.31209133  0.71727533  1
  O2-  O49  1  0.68790867  0.18180033  0.71727533  1
  O2-  O50  1  0.81819967  0.50610833  0.71727533  1
  O2-  O51  1  0.18180033  0.68790867  0.78272467  1
  O2-  O52  1  0.50610833  0.81819967  0.78272467  1
  O2-  O53  1  0.31209133  0.49389167  0.78272467  1
  O2-  O54  1  0.50610833  0.68790867  0.28272467  1
  O2-  O55  1  0.31209133  0.81819967  0.28272467  1
  O2-  O56  1  0.18180033  0.49389167  0.28272467  1
  O2-  O57  1  0.81819967  0.31209133  0.21727533  1
  O2-  O58  1  0.68790867  0.50610833  0.21727533  1
  O2-  O59  1  0.49389167  0.18180033  0.21727533  1
  O2-  O60  1  0.16055833  0.64542467  0.05060867  1
  O2-  O61  1  0.35457533  0.51513367  0.05060867  1
  O2-  O62  1  0.48486633  0.83944167  0.05060867  1
  O2-  O63  1  0.84846700  0.02124200  0.11605800  1
  O2-  O64  1  0.17277500  0.15153300  0.11605800  1
  O2-  O65  1  0.97875800  0.82722500  0.11605800  1
