# generated using pymatgen
data_Sr3NbGa3(SiO7)2
_symmetry_space_group_name_H-M   'P 1'
_cell_length_a   8.40778081
_cell_length_b   8.40778081
_cell_length_c   5.14984500
_cell_angle_alpha   90.00000000
_cell_angle_beta   90.00000000
_cell_angle_gamma   120.00000000
_symmetry_Int_Tables_number   1
_chemical_formula_structural   Sr3NbGa3(SiO7)2
_chemical_formula_sum   'Sr3 Nb1 Ga3 Si2 O14'
_cell_volume   315.27356050
_cell_formula_units_Z   1
loop_
 _symmetry_equiv_pos_site_id
 _symmetry_equiv_pos_as_xyz
  1  'x, y, z'
loop_
 _atom_type_symbol
 _atom_type_oxidation_number
  Sr2+  2.0
  Nb5+  5.0
  Ga3+  3.0
  Si4+  4.0
  O2-  -2.0
loop_
 _atom_site_type_symbol
 _atom_site_label
 _atom_site_symmetry_multiplicity
 _atom_site_fract_x
 _atom_site_fract_y
 _atom_site_fract_z
 _atom_site_occupancy
  Sr2+  Sr0  1  0.42780200  0.00000000  0.00000000  1
  Sr2+  Sr1  1  0.57219800  0.57219800  0.00000000  1
  Sr2+  Sr2  1  0.00000000  0.42780200  0.00000000  1
  Nb5+  Nb3  1  0.00000000  0.00000000  0.00000000  1
  Ga3+  Ga4  1  0.74349700  0.00000000  0.50000000  1
  Ga3+  Ga5  1  0.25650300  0.25650300  0.50000000  1
  Ga3+  Ga6  1  0.00000000  0.74349700  0.50000000  1
  Si4+  Si7  1  0.66666667  0.33333333  0.53408900  1
  Si4+  Si8  1  0.33333333  0.66666667  0.46591100  1
  O2-  O9  1  0.66666667  0.33333333  0.22161100  1
  O2-  O10  1  0.33333333  0.66666667  0.77838900  1
  O2-  O11  1  0.16440200  0.68719200  0.33081800  1
  O2-  O12  1  0.52279000  0.83559800  0.33081800  1
  O2-  O13  1  0.31280800  0.47721000  0.33081800  1
  O2-  O14  1  0.83559800  0.52279000  0.66918200  1
  O2-  O15  1  0.68719200  0.16440200  0.66918200  1
  O2-  O16  1  0.47721000  0.31280800  0.66918200  1
  O2-  O17  1  0.12586400  0.90253900  0.76885700  1
  O2-  O18  1  0.77667500  0.87413600  0.76885700  1
  O2-  O19  1  0.09746100  0.22332500  0.76885700  1
  O2-  O20  1  0.87413600  0.77667500  0.23114300  1
  O2-  O21  1  0.90253900  0.12586400  0.23114300  1
  O2-  O22  1  0.22332500  0.09746100  0.23114300  1
