# generated using pymatgen
data_Sr3TaGa3(SiO7)2
_symmetry_space_group_name_H-M   'P 1'
_cell_length_a   8.41219425
_cell_length_b   8.41219425
_cell_length_c   5.12950300
_cell_angle_alpha   90.00000000
_cell_angle_beta   90.00000000
_cell_angle_gamma   120.00000000
_symmetry_Int_Tables_number   1
_chemical_formula_structural   Sr3TaGa3(SiO7)2
_chemical_formula_sum   'Sr3 Ta1 Ga3 Si2 O14'
_cell_volume   314.35799173
_cell_formula_units_Z   1
loop_
 _symmetry_equiv_pos_site_id
 _symmetry_equiv_pos_as_xyz
  1  'x, y, z'
loop_
 _atom_type_symbol
 _atom_type_oxidation_number
  Sr2+  2.0
  Ta5+  5.0
  Ga3+  3.0
  Si4+  4.0
  O2-  -2.0
loop_
 _atom_site_type_symbol
 _atom_site_label
 _atom_site_symmetry_multiplicity
 _atom_site_fract_x
 _atom_site_fract_y
 _atom_site_fract_z
 _atom_site_occupancy
  Sr2+  Sr0  1  0.57375100  0.57375100  0.00000000  1
  Sr2+  Sr1  1  0.42624900  0.00000000  0.00000000  1
  Sr2+  Sr2  1  0.00000000  0.42624900  0.00000000  1
  Ta5+  Ta3  1  0.00000000  0.00000000  0.00000000  1
  Ga3+  Ga4  1  0.25586100  0.25586100  0.50000000  1
  Ga3+  Ga5  1  0.00000000  0.74413900  0.50000000  1
  Ga3+  Ga6  1  0.74413900  0.00000000  0.50000000  1
  Si4+  Si7  1  0.33333333  0.66666667  0.53526700  1
  Si4+  Si8  1  0.66666667  0.33333333  0.46473300  1
  O2-  O9  1  0.09636600  0.22165500  0.23012200  1
  O2-  O10  1  0.77834500  0.87471100  0.23012200  1
  O2-  O11  1  0.12528900  0.90363400  0.23012200  1
  O2-  O12  1  0.87471100  0.77834500  0.76987800  1
  O2-  O13  1  0.90363400  0.12528900  0.76987800  1
  O2-  O14  1  0.22165500  0.09636600  0.76987800  1
  O2-  O15  1  0.31032700  0.47609300  0.66991000  1
  O2-  O16  1  0.52390700  0.83423400  0.66991000  1
  O2-  O17  1  0.16576600  0.68967300  0.66991000  1
  O2-  O18  1  0.33333333  0.66666667  0.22117300  1
  O2-  O19  1  0.66666667  0.33333333  0.77882700  1
  O2-  O20  1  0.47609300  0.31032700  0.33009000  1
  O2-  O21  1  0.68967300  0.16576600  0.33009000  1
  O2-  O22  1  0.83423400  0.52390700  0.33009000  1
