# generated using pymatgen
data_Sr3WO6
_symmetry_space_group_name_H-M   'P 1'
_cell_length_a   9.93345984
_cell_length_b   9.93345984
_cell_length_c   11.65678233
_cell_angle_alpha   90.00000000
_cell_angle_beta   90.00000000
_cell_angle_gamma   120.00000000
_symmetry_Int_Tables_number   1
_chemical_formula_structural   Sr3WO6
_chemical_formula_sum   'Sr18 W6 O36'
_cell_volume   996.11710917
_cell_formula_units_Z   6
loop_
 _symmetry_equiv_pos_site_id
 _symmetry_equiv_pos_as_xyz
  1  'x, y, z'
loop_
 _atom_type_symbol
 _atom_type_oxidation_number
  Sr2+  2.0
  W6+  6.0
  O2-  -2.0
loop_
 _atom_site_type_symbol
 _atom_site_label
 _atom_site_symmetry_multiplicity
 _atom_site_fract_x
 _atom_site_fract_y
 _atom_site_fract_z
 _atom_site_occupancy
  Sr2+  Sr0  1  0.95962533  0.22840867  0.29307867  1
  Sr2+  Sr1  1  0.22840867  0.26878333  0.70692133  1
  Sr2+  Sr2  1  0.73121667  0.95962533  0.70692133  1
  Sr2+  Sr3  1  0.26878333  0.04037467  0.29307867  1
  Sr2+  Sr4  1  0.77159133  0.73121667  0.29307867  1
  Sr2+  Sr5  1  0.04037467  0.77159133  0.70692133  1
  Sr2+  Sr6  1  0.62629200  0.56174200  0.62641200  1
  Sr2+  Sr7  1  0.89507533  0.60211667  0.04025467  1
  Sr2+  Sr8  1  0.39788333  0.29295867  0.04025467  1
  Sr2+  Sr9  1  0.93545000  0.37370800  0.62641200  1
  Sr2+  Sr10  1  0.43825800  0.06455000  0.62641200  1
  Sr2+  Sr11  1  0.70704133  0.10492467  0.04025467  1
  Sr2+  Sr12  1  0.29295867  0.89507533  0.95974533  1
  Sr2+  Sr13  1  0.56174200  0.93545000  0.37358800  1
  Sr2+  Sr14  1  0.06455000  0.62629200  0.37358800  1
  Sr2+  Sr15  1  0.60211667  0.70704133  0.95974533  1
  Sr2+  Sr16  1  0.10492467  0.39788333  0.95974533  1
  Sr2+  Sr17  1  0.37370800  0.43825800  0.37358800  1
  W6+  W18  1  0.00000000  0.00000000  0.50000000  1
  W6+  W19  1  0.00000000  0.00000000  0.00000000  1
  W6+  W20  1  0.66666667  0.33333333  0.83333333  1
  W6+  W21  1  0.66666667  0.33333333  0.33333333  1
  W6+  W22  1  0.33333333  0.66666667  0.16666667  1
  W6+  W23  1  0.33333333  0.66666667  0.66666667  1
  O2-  O24  1  0.84454233  0.35901867  0.42649567  1
  O2-  O25  1  0.35901867  0.51447633  0.57350433  1
  O2-  O26  1  0.97403633  0.14595467  0.59938367  1
  O2-  O27  1  0.48552367  0.84454233  0.57350433  1
  O2-  O28  1  0.14595467  0.17191833  0.40061633  1
  O2-  O29  1  0.82808167  0.97403633  0.40061633  1
  O2-  O30  1  0.17191833  0.02596367  0.59938367  1
  O2-  O31  1  0.85404533  0.82808167  0.59938367  1
  O2-  O32  1  0.51447633  0.15545767  0.42649567  1
  O2-  O33  1  0.02596367  0.85404533  0.40061633  1
  O2-  O34  1  0.64098133  0.48552367  0.42649567  1
  O2-  O35  1  0.15545767  0.64098133  0.57350433  1
  O2-  O36  1  0.51120900  0.69235200  0.75982900  1
  O2-  O37  1  0.02568533  0.84780967  0.90683767  1
  O2-  O38  1  0.64070300  0.47928800  0.93271700  1
  O2-  O39  1  0.15219033  0.17787567  0.90683767  1
  O2-  O40  1  0.81262133  0.50525167  0.73394967  1
  O2-  O41  1  0.49474833  0.30736967  0.73394967  1
  O2-  O42  1  0.83858500  0.35929700  0.93271700  1
  O2-  O43  1  0.52071200  0.16141500  0.93271700  1
  O2-  O44  1  0.18114300  0.48879100  0.75982900  1
  O2-  O45  1  0.69263033  0.18737867  0.73394967  1
  O2-  O46  1  0.30764800  0.81885700  0.75982900  1
  O2-  O47  1  0.82212433  0.97431467  0.90683767  1
  O2-  O48  1  0.17787567  0.02568533  0.09316233  1
  O2-  O49  1  0.69235200  0.18114300  0.24017100  1
  O2-  O50  1  0.30736967  0.81262133  0.26605033  1
  O2-  O51  1  0.81885700  0.51120900  0.24017100  1
  O2-  O52  1  0.47928800  0.83858500  0.06728300  1
  O2-  O53  1  0.16141500  0.64070300  0.06728300  1
  O2-  O54  1  0.50525167  0.69263033  0.26605033  1
  O2-  O55  1  0.18737867  0.49474833  0.26605033  1
  O2-  O56  1  0.84780967  0.82212433  0.09316233  1
  O2-  O57  1  0.35929700  0.52071200  0.06728300  1
  O2-  O58  1  0.97431467  0.15219033  0.09316233  1
  O2-  O59  1  0.48879100  0.30764800  0.24017100  1
