# generated using pymatgen
data_Sr3ZnPtO6
_symmetry_space_group_name_H-M   'P 1'
_cell_length_a   9.69915777
_cell_length_b   9.69915777
_cell_length_c   11.42368948
_cell_angle_alpha   90.00000000
_cell_angle_beta   90.00000000
_cell_angle_gamma   120.00000000
_symmetry_Int_Tables_number   1
_chemical_formula_structural   Sr3ZnPtO6
_chemical_formula_sum   'Sr18 Zn6 Pt6 O36'
_cell_volume   930.69004623
_cell_formula_units_Z   6
loop_
 _symmetry_equiv_pos_site_id
 _symmetry_equiv_pos_as_xyz
  1  'x, y, z'
loop_
 _atom_type_symbol
 _atom_type_oxidation_number
  Sr2+  2.0
  Zn2+  2.0
  Pt4+  4.0
  O2-  -2.0
loop_
 _atom_site_type_symbol
 _atom_site_label
 _atom_site_symmetry_multiplicity
 _atom_site_fract_x
 _atom_site_fract_y
 _atom_site_fract_z
 _atom_site_occupancy
  Sr2+  Sr0  1  0.33333333  0.30326967  0.41666667  1
  Sr2+  Sr1  1  0.69673033  0.03006367  0.41666667  1
  Sr2+  Sr2  1  0.03006367  0.33333333  0.58333333  1
  Sr2+  Sr3  1  0.66666667  0.69673033  0.58333333  1
  Sr2+  Sr4  1  0.30326967  0.96993633  0.58333333  1
  Sr2+  Sr5  1  0.96993633  0.66666667  0.41666667  1
  Sr2+  Sr6  1  0.00000000  0.63660300  0.75000000  1
  Sr2+  Sr7  1  0.36339700  0.36339700  0.75000000  1
  Sr2+  Sr8  1  0.69673033  0.66666667  0.91666667  1
  Sr2+  Sr9  1  0.33333333  0.03006367  0.91666667  1
  Sr2+  Sr10  1  0.96993633  0.30326967  0.91666667  1
  Sr2+  Sr11  1  0.63660300  0.00000000  0.75000000  1
  Sr2+  Sr12  1  0.66666667  0.96993633  0.08333333  1
  Sr2+  Sr13  1  0.03006367  0.69673033  0.08333333  1
  Sr2+  Sr14  1  0.36339700  0.00000000  0.25000000  1
  Sr2+  Sr15  1  0.00000000  0.36339700  0.25000000  1
  Sr2+  Sr16  1  0.63660300  0.63660300  0.25000000  1
  Sr2+  Sr17  1  0.30326967  0.33333333  0.08333333  1
  Zn2+  Zn18  1  0.00000000  0.00000000  0.75000000  1
  Zn2+  Zn19  1  0.00000000  0.00000000  0.25000000  1
  Zn2+  Zn20  1  0.66666667  0.33333333  0.08333333  1
  Zn2+  Zn21  1  0.66666667  0.33333333  0.58333333  1
  Zn2+  Zn22  1  0.33333333  0.66666667  0.41666667  1
  Zn2+  Zn23  1  0.33333333  0.66666667  0.91666667  1
  Pt4+  Pt24  1  0.00000000  0.00000000  0.50000000  1
  Pt4+  Pt25  1  0.00000000  0.00000000  0.00000000  1
  Pt4+  Pt26  1  0.66666667  0.33333333  0.83333333  1
  Pt4+  Pt27  1  0.66666667  0.33333333  0.33333333  1
  Pt4+  Pt28  1  0.33333333  0.66666667  0.16666667  1
  Pt4+  Pt29  1  0.33333333  0.66666667  0.66666667  1
  O2-  O30  1  0.64639733  0.48643067  0.44680367  1
  O2-  O31  1  0.51356933  0.15996667  0.44680367  1
  O2-  O32  1  0.84003333  0.35360267  0.44680367  1
  O2-  O33  1  0.82663333  0.84690267  0.38652967  1
  O2-  O34  1  0.15309733  0.97973067  0.38652967  1
  O2-  O35  1  0.02026933  0.17336667  0.38652967  1
  O2-  O36  1  0.35360267  0.51356933  0.55319633  1
  O2-  O37  1  0.48643067  0.84003333  0.55319633  1
  O2-  O38  1  0.15996667  0.64639733  0.55319633  1
  O2-  O39  1  0.17336667  0.15309733  0.61347033  1
  O2-  O40  1  0.97973067  0.82663333  0.61347033  1
  O2-  O41  1  0.84690267  0.02026933  0.61347033  1
  O2-  O42  1  0.31306400  0.81976400  0.78013700  1
  O2-  O43  1  0.18023600  0.49330000  0.78013700  1
  O2-  O44  1  0.50670000  0.68693600  0.78013700  1
  O2-  O45  1  0.49330000  0.18023600  0.71986300  1
  O2-  O46  1  0.81976400  0.31306400  0.71986300  1
  O2-  O47  1  0.68693600  0.50670000  0.71986300  1
  O2-  O48  1  0.02026933  0.84690267  0.88652967  1
  O2-  O49  1  0.15309733  0.17336667  0.88652967  1
  O2-  O50  1  0.82663333  0.97973067  0.88652967  1
  O2-  O51  1  0.84003333  0.48643067  0.94680367  1
  O2-  O52  1  0.64639733  0.15996667  0.94680367  1
  O2-  O53  1  0.51356933  0.35360267  0.94680367  1
  O2-  O54  1  0.97973067  0.15309733  0.11347033  1
  O2-  O55  1  0.84690267  0.82663333  0.11347033  1
  O2-  O56  1  0.17336667  0.02026933  0.11347033  1
  O2-  O57  1  0.15996667  0.51356933  0.05319633  1
  O2-  O58  1  0.48643067  0.64639733  0.05319633  1
  O2-  O59  1  0.35360267  0.84003333  0.05319633  1
  O2-  O60  1  0.68693600  0.18023600  0.21986300  1
  O2-  O61  1  0.81976400  0.50670000  0.21986300  1
  O2-  O62  1  0.49330000  0.31306400  0.21986300  1
  O2-  O63  1  0.50670000  0.81976400  0.28013700  1
  O2-  O64  1  0.31306400  0.49330000  0.28013700  1
  O2-  O65  1  0.18023600  0.68693600  0.28013700  1
