# generated using pymatgen
data_Sr4Nb2O9
_symmetry_space_group_name_H-M   'P 1'
_cell_length_a   5.94910966
_cell_length_b   5.94910966
_cell_length_c   15.94286700
_cell_angle_alpha   90.00000000
_cell_angle_beta   90.00000000
_cell_angle_gamma   120.00000000
_symmetry_Int_Tables_number   1
_chemical_formula_structural   Sr4Nb2O9
_chemical_formula_sum   'Sr8 Nb4 O18'
_cell_volume   488.65348883
_cell_formula_units_Z   2
loop_
 _symmetry_equiv_pos_site_id
 _symmetry_equiv_pos_as_xyz
  1  'x, y, z'
loop_
 _atom_type_symbol
 _atom_type_oxidation_number
  Sr2+  2.0
  Nb5+  5.0
  O2-  -2.0
loop_
 _atom_site_type_symbol
 _atom_site_label
 _atom_site_symmetry_multiplicity
 _atom_site_fract_x
 _atom_site_fract_y
 _atom_site_fract_z
 _atom_site_occupancy
  Sr2+  Sr0  1  0.66666667  0.33333333  0.13790400  1
  Sr2+  Sr1  1  0.33333333  0.66666667  0.64283400  1
  Sr2+  Sr2  1  0.33333333  0.66666667  0.86209600  1
  Sr2+  Sr3  1  0.66666667  0.33333333  0.35716600  1
  Sr2+  Sr4  1  0.00000000  0.00000000  0.25003100  1
  Sr2+  Sr5  1  0.00000000  0.00000000  0.00000000  1
  Sr2+  Sr6  1  0.00000000  0.00000000  0.74996900  1
  Sr2+  Sr7  1  0.00000000  0.00000000  0.50000000  1
  Nb5+  Nb8  1  0.66666667  0.33333333  0.65557800  1
  Nb5+  Nb9  1  0.66666667  0.33333333  0.84737900  1
  Nb5+  Nb10  1  0.33333333  0.66666667  0.34442200  1
  Nb5+  Nb11  1  0.33333333  0.66666667  0.15262100  1
  O2-  O12  1  0.08297500  0.35871700  0.09940600  1
  O2-  O13  1  0.35147400  0.27274400  0.60382600  1
  O2-  O14  1  0.64852600  0.72725600  0.39617400  1
  O2-  O15  1  0.44330300  0.03663300  0.75099300  1
  O2-  O16  1  0.40667000  0.44330300  0.24900700  1
  O2-  O17  1  0.35871700  0.27574200  0.90059400  1
  O2-  O18  1  0.27574200  0.91702500  0.09940600  1
  O2-  O19  1  0.59333000  0.55669700  0.75099300  1
  O2-  O20  1  0.91702500  0.64128300  0.90059400  1
  O2-  O21  1  0.96336700  0.40667000  0.75099300  1
  O2-  O22  1  0.03663300  0.59333000  0.24900700  1
  O2-  O23  1  0.55669700  0.96336700  0.24900700  1
  O2-  O24  1  0.27274400  0.92127000  0.39617400  1
  O2-  O25  1  0.07873000  0.35147400  0.39617400  1
  O2-  O26  1  0.72725600  0.07873000  0.60382600  1
  O2-  O27  1  0.72425800  0.08297500  0.90059400  1
  O2-  O28  1  0.92127000  0.64852600  0.60382600  1
  O2-  O29  1  0.64128300  0.72425800  0.09940600  1
