# generated using pymatgen
data_Sr5(AuO4)2
_symmetry_space_group_name_H-M   'P 1'
_cell_length_a   8.41990000
_cell_length_b   8.41990000
_cell_length_c   6.61166600
_cell_angle_alpha   90.00000000
_cell_angle_beta   90.00000000
_cell_angle_gamma   90.00000000
_symmetry_Int_Tables_number   1
_chemical_formula_structural   Sr5(AuO4)2
_chemical_formula_sum   'Sr10 Au4 O16'
_cell_volume   468.73218342
_cell_formula_units_Z   2
loop_
 _symmetry_equiv_pos_site_id
 _symmetry_equiv_pos_as_xyz
  1  'x, y, z'
loop_
 _atom_type_symbol
 _atom_type_oxidation_number
  Sr2+  2.0
  Au3+  3.0
  O2-  -2.0
loop_
 _atom_site_type_symbol
 _atom_site_label
 _atom_site_symmetry_multiplicity
 _atom_site_fract_x
 _atom_site_fract_y
 _atom_site_fract_z
 _atom_site_occupancy
  Sr2+  Sr0  1  0.77858400  0.77858400  0.50000000  1
  Sr2+  Sr1  1  0.72141600  0.72141600  0.00000000  1
  Sr2+  Sr2  1  0.72141600  0.27858400  0.00000000  1
  Sr2+  Sr3  1  0.77858400  0.22141600  0.50000000  1
  Sr2+  Sr4  1  0.00000000  0.00000000  0.00000000  1
  Sr2+  Sr5  1  0.27858400  0.27858400  0.00000000  1
  Sr2+  Sr6  1  0.22141600  0.22141600  0.50000000  1
  Sr2+  Sr7  1  0.22141600  0.77858400  0.50000000  1
  Sr2+  Sr8  1  0.27858400  0.72141600  0.00000000  1
  Sr2+  Sr9  1  0.50000000  0.50000000  0.50000000  1
  Au3+  Au10  1  0.50000000  0.00000000  0.75000000  1
  Au3+  Au11  1  0.50000000  0.00000000  0.25000000  1
  Au3+  Au12  1  0.00000000  0.50000000  0.25000000  1
  Au3+  Au13  1  0.00000000  0.50000000  0.75000000  1
  O2-  O14  1  0.74456950  0.00000000  0.76044750  1
  O2-  O15  1  0.25543050  0.00000000  0.76044750  1
  O2-  O16  1  0.50000000  0.75543050  0.73955250  1
  O2-  O17  1  0.50000000  0.24456950  0.73955250  1
  O2-  O18  1  0.50000000  0.24456950  0.26044750  1
  O2-  O19  1  0.50000000  0.75543050  0.26044750  1
  O2-  O20  1  0.25543050  0.00000000  0.23955250  1
  O2-  O21  1  0.74456950  0.00000000  0.23955250  1
  O2-  O22  1  0.24456950  0.50000000  0.26044750  1
  O2-  O23  1  0.75543050  0.50000000  0.26044750  1
  O2-  O24  1  0.00000000  0.25543050  0.23955250  1
  O2-  O25  1  0.00000000  0.74456950  0.23955250  1
  O2-  O26  1  0.00000000  0.74456950  0.76044750  1
  O2-  O27  1  0.00000000  0.25543050  0.76044750  1
  O2-  O28  1  0.75543050  0.50000000  0.73955250  1
  O2-  O29  1  0.24456950  0.50000000  0.73955250  1
