# generated using pymatgen
data_SrBe3O4
_symmetry_space_group_name_H-M   'P 1'
_cell_length_a   4.62219227
_cell_length_b   4.62219227
_cell_length_c   8.98741200
_cell_angle_alpha   90.00000000
_cell_angle_beta   90.00000000
_cell_angle_gamma   120.00000000
_symmetry_Int_Tables_number   1
_chemical_formula_structural   SrBe3O4
_chemical_formula_sum   'Sr2 Be6 O8'
_cell_volume   166.28814773
_cell_formula_units_Z   2
loop_
 _symmetry_equiv_pos_site_id
 _symmetry_equiv_pos_as_xyz
  1  'x, y, z'
loop_
 _atom_type_symbol
 _atom_type_oxidation_number
  Sr2+  2.0
  Be2+  2.0
  O2-  -2.0
loop_
 _atom_site_type_symbol
 _atom_site_label
 _atom_site_symmetry_multiplicity
 _atom_site_fract_x
 _atom_site_fract_y
 _atom_site_fract_z
 _atom_site_occupancy
  Sr2+  Sr0  1  0.66666667  0.33333333  0.75000000  1
  Sr2+  Sr1  1  0.33333333  0.66666667  0.25000000  1
  Be2+  Be2  1  0.00000000  0.00000000  0.00000000  1
  Be2+  Be3  1  0.00000000  0.00000000  0.50000000  1
  Be2+  Be4  1  0.33333333  0.66666667  0.57125300  1
  Be2+  Be5  1  0.33333333  0.66666667  0.92874700  1
  Be2+  Be6  1  0.66666667  0.33333333  0.42874700  1
  Be2+  Be7  1  0.66666667  0.33333333  0.07125300  1
  O2-  O8  1  0.66611650  0.00000000  0.50000000  1
  O2-  O9  1  0.33388350  0.33388350  0.00000000  1
  O2-  O10  1  0.66666667  0.33333333  0.25000000  1
  O2-  O11  1  0.33333333  0.66666667  0.75000000  1
  O2-  O12  1  0.66611650  0.00000000  0.00000000  1
  O2-  O13  1  0.33388350  0.33388350  0.50000000  1
  O2-  O14  1  0.00000000  0.66611650  0.50000000  1
  O2-  O15  1  0.00000000  0.66611650  0.00000000  1
