# generated using pymatgen
data_SrGa2B2O7
_symmetry_space_group_name_H-M   'P 1'
_cell_length_a   8.43874800
_cell_length_b   11.85088400
_cell_length_c   5.80079400
_cell_angle_alpha   90.00000000
_cell_angle_beta   90.00000000
_cell_angle_gamma   90.00000000
_symmetry_Int_Tables_number   1
_chemical_formula_structural   SrGa2B2O7
_chemical_formula_sum   'Sr4 Ga8 B8 O28'
_cell_volume   580.11782245
_cell_formula_units_Z   4
loop_
 _symmetry_equiv_pos_site_id
 _symmetry_equiv_pos_as_xyz
  1  'x, y, z'
loop_
 _atom_type_symbol
 _atom_type_oxidation_number
  Sr2+  2.0
  Ga3+  3.0
  B3+  3.0
  O2-  -2.0
loop_
 _atom_site_type_symbol
 _atom_site_label
 _atom_site_symmetry_multiplicity
 _atom_site_fract_x
 _atom_site_fract_y
 _atom_site_fract_z
 _atom_site_occupancy
  Sr2+  Sr0  1  0.18342400  0.00000000  0.75000000  1
  Sr2+  Sr1  1  0.81657600  0.00000000  0.25000000  1
  Sr2+  Sr2  1  0.68342400  0.50000000  0.75000000  1
  Sr2+  Sr3  1  0.31657600  0.50000000  0.25000000  1
  Ga3+  Ga4  1  0.58393500  0.29103700  0.25000000  1
  Ga3+  Ga5  1  0.41606500  0.29103700  0.75000000  1
  Ga3+  Ga6  1  0.58393500  0.70896300  0.25000000  1
  Ga3+  Ga7  1  0.41606500  0.70896300  0.75000000  1
  Ga3+  Ga8  1  0.08393500  0.79103700  0.25000000  1
  Ga3+  Ga9  1  0.91606500  0.79103700  0.75000000  1
  Ga3+  Ga10  1  0.08393500  0.20896300  0.25000000  1
  Ga3+  Ga11  1  0.91606500  0.20896300  0.75000000  1
  B3+  B12  1  0.59586900  0.10899800  0.75000000  1
  B3+  B13  1  0.59586900  0.89100200  0.75000000  1
  B3+  B14  1  0.40413100  0.10899800  0.25000000  1
  B3+  B15  1  0.40413100  0.89100200  0.25000000  1
  B3+  B16  1  0.09586900  0.60899800  0.75000000  1
  B3+  B17  1  0.09586900  0.39100200  0.75000000  1
  B3+  B18  1  0.90413100  0.60899800  0.25000000  1
  B3+  B19  1  0.90413100  0.39100200  0.25000000  1
  O2-  O20  1  0.66112300  0.00000000  0.75000000  1
  O2-  O21  1  0.50000000  0.37059900  0.00000000  1
  O2-  O22  1  0.56498100  0.13036000  0.25000000  1
  O2-  O23  1  0.33887700  0.00000000  0.25000000  1
  O2-  O24  1  0.50000000  0.62940100  0.00000000  1
  O2-  O25  1  0.69629700  0.80130200  0.75000000  1
  O2-  O26  1  0.69629700  0.19869800  0.75000000  1
  O2-  O27  1  0.30370300  0.80130200  0.25000000  1
  O2-  O28  1  0.43501900  0.86964000  0.75000000  1
  O2-  O29  1  0.56498100  0.86964000  0.25000000  1
  O2-  O30  1  0.30370300  0.19869800  0.25000000  1
  O2-  O31  1  0.50000000  0.37059900  0.50000000  1
  O2-  O32  1  0.50000000  0.62940100  0.50000000  1
  O2-  O33  1  0.43501900  0.13036000  0.75000000  1
  O2-  O34  1  0.16112300  0.50000000  0.75000000  1
  O2-  O35  1  0.00000000  0.87059900  0.00000000  1
  O2-  O36  1  0.06498100  0.63036000  0.25000000  1
  O2-  O37  1  0.83887700  0.50000000  0.25000000  1
  O2-  O38  1  0.00000000  0.12940100  0.00000000  1
  O2-  O39  1  0.19629700  0.30130200  0.75000000  1
  O2-  O40  1  0.19629700  0.69869800  0.75000000  1
  O2-  O41  1  0.80370300  0.30130200  0.25000000  1
  O2-  O42  1  0.93501900  0.36964000  0.75000000  1
  O2-  O43  1  0.06498100  0.36964000  0.25000000  1
  O2-  O44  1  0.80370300  0.69869800  0.25000000  1
  O2-  O45  1  0.00000000  0.87059900  0.50000000  1
  O2-  O46  1  0.00000000  0.12940100  0.50000000  1
  O2-  O47  1  0.93501900  0.63036000  0.75000000  1
