# generated using pymatgen
data_SrIn2O4
_symmetry_space_group_name_H-M   'P 1'
_cell_length_a   3.32088100
_cell_length_b   9.97032500
_cell_length_c   11.66486100
_cell_angle_alpha   90.00000000
_cell_angle_beta   90.00000000
_cell_angle_gamma   90.00000000
_symmetry_Int_Tables_number   1
_chemical_formula_structural   SrIn2O4
_chemical_formula_sum   'Sr4 In8 O16'
_cell_volume   386.22661389
_cell_formula_units_Z   4
loop_
 _symmetry_equiv_pos_site_id
 _symmetry_equiv_pos_as_xyz
  1  'x, y, z'
loop_
 _atom_type_symbol
 _atom_type_oxidation_number
  Sr2+  2.0
  In3+  3.0
  O2-  -2.0
loop_
 _atom_site_type_symbol
 _atom_site_label
 _atom_site_symmetry_multiplicity
 _atom_site_fract_x
 _atom_site_fract_y
 _atom_site_fract_z
 _atom_site_occupancy
  Sr2+  Sr0  1  0.75000000  0.75604500  0.34831400  1
  Sr2+  Sr1  1  0.25000000  0.24395500  0.65168600  1
  Sr2+  Sr2  1  0.75000000  0.25604500  0.15168600  1
  Sr2+  Sr3  1  0.25000000  0.74395500  0.84831400  1
  In3+  In4  1  0.75000000  0.41876800  0.89346100  1
  In3+  In5  1  0.25000000  0.58123200  0.10653900  1
  In3+  In6  1  0.75000000  0.91876800  0.60653900  1
  In3+  In7  1  0.25000000  0.08123200  0.39346100  1
  In3+  In8  1  0.75000000  0.43021800  0.38851800  1
  In3+  In9  1  0.25000000  0.56978200  0.61148200  1
  In3+  In10  1  0.75000000  0.93021800  0.11148200  1
  In3+  In11  1  0.25000000  0.06978200  0.88851800  1
  O2-  O12  1  0.75000000  0.20645800  0.83098300  1
  O2-  O13  1  0.25000000  0.79354200  0.16901700  1
  O2-  O14  1  0.75000000  0.70645800  0.66901700  1
  O2-  O15  1  0.25000000  0.29354200  0.33098300  1
  O2-  O16  1  0.75000000  0.12113500  0.52107200  1
  O2-  O17  1  0.25000000  0.87886500  0.47892800  1
  O2-  O18  1  0.75000000  0.62113500  0.97892800  1
  O2-  O19  1  0.25000000  0.37886500  0.02107200  1
  O2-  O20  1  0.75000000  0.52382400  0.21775900  1
  O2-  O21  1  0.25000000  0.47617600  0.78224100  1
  O2-  O22  1  0.75000000  0.02382400  0.28224100  1
  O2-  O23  1  0.25000000  0.97617600  0.71775900  1
  O2-  O24  1  0.75000000  0.41841400  0.57406600  1
  O2-  O25  1  0.25000000  0.58158600  0.42593400  1
  O2-  O26  1  0.75000000  0.91841400  0.92593400  1
  O2-  O27  1  0.25000000  0.08158600  0.07406600  1
