# generated using pymatgen
data_SrWO4
_symmetry_space_group_name_H-M   'P 1'
_cell_length_a   5.54032600
_cell_length_b   5.54032600
_cell_length_c   12.04655800
_cell_angle_alpha   90.00000000
_cell_angle_beta   90.00000000
_cell_angle_gamma   90.00000000
_symmetry_Int_Tables_number   1
_chemical_formula_structural   SrWO4
_chemical_formula_sum   'Sr4 W4 O16'
_cell_volume   369.77165392
_cell_formula_units_Z   4
loop_
 _symmetry_equiv_pos_site_id
 _symmetry_equiv_pos_as_xyz
  1  'x, y, z'
loop_
 _atom_type_symbol
 _atom_type_oxidation_number
  Sr2+  2.0
  W6+  6.0
  O2-  -2.0
loop_
 _atom_site_type_symbol
 _atom_site_label
 _atom_site_symmetry_multiplicity
 _atom_site_fract_x
 _atom_site_fract_y
 _atom_site_fract_z
 _atom_site_occupancy
  Sr2+  Sr0  1  0.00000000  0.50000000  0.25000000  1
  Sr2+  Sr1  1  0.00000000  0.00000000  0.00000000  1
  Sr2+  Sr2  1  0.50000000  0.00000000  0.75000000  1
  Sr2+  Sr3  1  0.50000000  0.50000000  0.50000000  1
  W6+  W4  1  0.50000000  0.00000000  0.25000000  1
  W6+  W5  1  0.50000000  0.50000000  0.00000000  1
  W6+  W6  1  0.00000000  0.50000000  0.75000000  1
  W6+  W7  1  0.00000000  0.00000000  0.50000000  1
  O2-  O8  1  0.63837700  0.23767200  0.33348700  1
  O2-  O9  1  0.36162300  0.76232800  0.33348700  1
  O2-  O10  1  0.73767200  0.36162300  0.08348700  1
  O2-  O11  1  0.26232800  0.63837700  0.08348700  1
  O2-  O12  1  0.86162300  0.76232800  0.41651300  1
  O2-  O13  1  0.13837700  0.23767200  0.41651300  1
  O2-  O14  1  0.26232800  0.13837700  0.16651300  1
  O2-  O15  1  0.73767200  0.86162300  0.16651300  1
  O2-  O16  1  0.13837700  0.73767200  0.83348700  1
  O2-  O17  1  0.86162300  0.26232800  0.83348700  1
  O2-  O18  1  0.23767200  0.86162300  0.58348700  1
  O2-  O19  1  0.76232800  0.13837700  0.58348700  1
  O2-  O20  1  0.36162300  0.26232800  0.91651300  1
  O2-  O21  1  0.63837700  0.73767200  0.91651300  1
  O2-  O22  1  0.76232800  0.63837700  0.66651300  1
  O2-  O23  1  0.23767200  0.36162300  0.66651300  1
