# generated using pymatgen
data_SrZrO3
_symmetry_space_group_name_H-M   'P 1'
_cell_length_a   5.84709100
_cell_length_b   5.91232800
_cell_length_c   8.29829500
_cell_angle_alpha   90.00000000
_cell_angle_beta   90.00000000
_cell_angle_gamma   90.00000000
_symmetry_Int_Tables_number   1
_chemical_formula_structural   SrZrO3
_chemical_formula_sum   'Sr4 Zr4 O12'
_cell_volume   286.87139294
_cell_formula_units_Z   4
loop_
 _symmetry_equiv_pos_site_id
 _symmetry_equiv_pos_as_xyz
  1  'x, y, z'
loop_
 _atom_type_symbol
 _atom_type_oxidation_number
  Sr2+  2.0
  Zr4+  4.0
  O2-  -2.0
loop_
 _atom_site_type_symbol
 _atom_site_label
 _atom_site_symmetry_multiplicity
 _atom_site_fract_x
 _atom_site_fract_y
 _atom_site_fract_z
 _atom_site_occupancy
  Sr2+  Sr0  1  0.00734200  0.53296300  0.25000000  1
  Sr2+  Sr1  1  0.50734200  0.96703700  0.75000000  1
  Sr2+  Sr2  1  0.49265800  0.03296300  0.25000000  1
  Sr2+  Sr3  1  0.99265800  0.46703700  0.75000000  1
  Zr4+  Zr4  1  0.00000000  0.00000000  0.00000000  1
  Zr4+  Zr5  1  0.50000000  0.50000000  0.00000000  1
  Zr4+  Zr6  1  0.50000000  0.50000000  0.50000000  1
  Zr4+  Zr7  1  0.00000000  0.00000000  0.50000000  1
  O2-  O8  1  0.21272500  0.28690400  0.45912400  1
  O2-  O9  1  0.71272500  0.21309600  0.54087600  1
  O2-  O10  1  0.28727500  0.78690400  0.04087600  1
  O2-  O11  1  0.78727500  0.71309600  0.95912400  1
  O2-  O12  1  0.78727500  0.71309600  0.54087600  1
  O2-  O13  1  0.28727500  0.78690400  0.45912400  1
  O2-  O14  1  0.71272500  0.21309600  0.95912400  1
  O2-  O15  1  0.21272500  0.28690400  0.04087600  1
  O2-  O16  1  0.92260700  0.97891600  0.25000000  1
  O2-  O17  1  0.42260700  0.52108400  0.75000000  1
  O2-  O18  1  0.57739300  0.47891600  0.25000000  1
  O2-  O19  1  0.07739300  0.02108400  0.75000000  1
