# generated using pymatgen
data_Ta2Cd2O7
_symmetry_space_group_name_H-M   'P 1'
_cell_length_a   10.51940400
_cell_length_b   10.51940400
_cell_length_c   10.51940400
_cell_angle_alpha   90.00000000
_cell_angle_beta   90.00000000
_cell_angle_gamma   90.00000000
_symmetry_Int_Tables_number   1
_chemical_formula_structural   Ta2Cd2O7
_chemical_formula_sum   'Ta16 Cd16 O56'
_cell_volume   1164.05474054
_cell_formula_units_Z   8
loop_
 _symmetry_equiv_pos_site_id
 _symmetry_equiv_pos_as_xyz
  1  'x, y, z'
loop_
 _atom_type_symbol
 _atom_type_oxidation_number
  Ta5+  5.0
  Cd2+  2.0
  O2-  -2.0
loop_
 _atom_site_type_symbol
 _atom_site_label
 _atom_site_symmetry_multiplicity
 _atom_site_fract_x
 _atom_site_fract_y
 _atom_site_fract_z
 _atom_site_occupancy
  Ta5+  Ta0  1  0.12500000  0.12500000  0.12500000  1
  Ta5+  Ta1  1  0.62500000  0.87500000  0.37500000  1
  Ta5+  Ta2  1  0.87500000  0.87500000  0.12500000  1
  Ta5+  Ta3  1  0.37500000  0.12500000  0.37500000  1
  Ta5+  Ta4  1  0.12500000  0.62500000  0.62500000  1
  Ta5+  Ta5  1  0.62500000  0.37500000  0.87500000  1
  Ta5+  Ta6  1  0.87500000  0.37500000  0.62500000  1
  Ta5+  Ta7  1  0.37500000  0.62500000  0.87500000  1
  Ta5+  Ta8  1  0.62500000  0.12500000  0.62500000  1
  Ta5+  Ta9  1  0.12500000  0.87500000  0.87500000  1
  Ta5+  Ta10  1  0.37500000  0.87500000  0.62500000  1
  Ta5+  Ta11  1  0.87500000  0.12500000  0.87500000  1
  Ta5+  Ta12  1  0.62500000  0.62500000  0.12500000  1
  Ta5+  Ta13  1  0.12500000  0.37500000  0.37500000  1
  Ta5+  Ta14  1  0.37500000  0.37500000  0.12500000  1
  Ta5+  Ta15  1  0.87500000  0.62500000  0.37500000  1
  Cd2+  Cd16  1  0.12500000  0.62500000  0.12500000  1
  Cd2+  Cd17  1  0.12500000  0.87500000  0.37500000  1
  Cd2+  Cd18  1  0.37500000  0.87500000  0.12500000  1
  Cd2+  Cd19  1  0.37500000  0.62500000  0.37500000  1
  Cd2+  Cd20  1  0.12500000  0.12500000  0.62500000  1
  Cd2+  Cd21  1  0.12500000  0.37500000  0.87500000  1
  Cd2+  Cd22  1  0.37500000  0.37500000  0.62500000  1
  Cd2+  Cd23  1  0.37500000  0.12500000  0.87500000  1
  Cd2+  Cd24  1  0.62500000  0.62500000  0.62500000  1
  Cd2+  Cd25  1  0.62500000  0.87500000  0.87500000  1
  Cd2+  Cd26  1  0.87500000  0.87500000  0.62500000  1
  Cd2+  Cd27  1  0.87500000  0.62500000  0.87500000  1
  Cd2+  Cd28  1  0.62500000  0.12500000  0.12500000  1
  Cd2+  Cd29  1  0.62500000  0.37500000  0.37500000  1
  Cd2+  Cd30  1  0.87500000  0.37500000  0.12500000  1
  Cd2+  Cd31  1  0.87500000  0.12500000  0.37500000  1
  O2-  O32  1  0.25000000  0.25000000  0.05836900  1
  O2-  O33  1  0.50000000  0.00000000  0.30836900  1
  O2-  O34  1  0.25000000  0.44163100  0.25000000  1
  O2-  O35  1  0.05836900  0.25000000  0.25000000  1
  O2-  O36  1  0.44163100  0.25000000  0.25000000  1
  O2-  O37  1  0.25000000  0.05836900  0.25000000  1
  O2-  O38  1  0.50000000  0.80836900  0.50000000  1
  O2-  O39  1  0.50000000  0.19163100  0.50000000  1
  O2-  O40  1  0.25000000  0.75000000  0.25000000  1
  O2-  O41  1  0.00000000  0.00000000  0.50000000  1
  O2-  O42  1  0.25000000  0.25000000  0.44163100  1
  O2-  O43  1  0.30836900  0.00000000  0.50000000  1
  O2-  O44  1  0.69163100  0.00000000  0.50000000  1
  O2-  O45  1  0.00000000  0.00000000  0.19163100  1
  O2-  O46  1  0.25000000  0.75000000  0.55836900  1
  O2-  O47  1  0.50000000  0.50000000  0.80836900  1
  O2-  O48  1  0.25000000  0.94163100  0.75000000  1
  O2-  O49  1  0.05836900  0.75000000  0.75000000  1
  O2-  O50  1  0.44163100  0.75000000  0.75000000  1
  O2-  O51  1  0.25000000  0.55836900  0.75000000  1
  O2-  O52  1  0.50000000  0.30836900  0.00000000  1
  O2-  O53  1  0.50000000  0.69163100  0.00000000  1
  O2-  O54  1  0.25000000  0.25000000  0.75000000  1
  O2-  O55  1  0.00000000  0.50000000  0.00000000  1
  O2-  O56  1  0.25000000  0.75000000  0.94163100  1
  O2-  O57  1  0.30836900  0.50000000  0.00000000  1
  O2-  O58  1  0.69163100  0.50000000  0.00000000  1
  O2-  O59  1  0.00000000  0.50000000  0.69163100  1
  O2-  O60  1  0.75000000  0.25000000  0.55836900  1
  O2-  O61  1  0.00000000  0.00000000  0.80836900  1
  O2-  O62  1  0.75000000  0.44163100  0.75000000  1
  O2-  O63  1  0.55836900  0.25000000  0.75000000  1
  O2-  O64  1  0.94163100  0.25000000  0.75000000  1
  O2-  O65  1  0.75000000  0.05836900  0.75000000  1
  O2-  O66  1  0.00000000  0.80836900  0.00000000  1
  O2-  O67  1  0.00000000  0.19163100  0.00000000  1
  O2-  O68  1  0.75000000  0.75000000  0.75000000  1
  O2-  O69  1  0.50000000  0.00000000  0.00000000  1
  O2-  O70  1  0.75000000  0.25000000  0.94163100  1
  O2-  O71  1  0.80836900  0.00000000  0.00000000  1
  O2-  O72  1  0.19163100  0.00000000  0.00000000  1
  O2-  O73  1  0.50000000  0.00000000  0.69163100  1
  O2-  O74  1  0.75000000  0.75000000  0.05836900  1
  O2-  O75  1  0.00000000  0.50000000  0.30836900  1
  O2-  O76  1  0.75000000  0.94163100  0.25000000  1
  O2-  O77  1  0.55836900  0.75000000  0.25000000  1
  O2-  O78  1  0.94163100  0.75000000  0.25000000  1
  O2-  O79  1  0.75000000  0.55836900  0.25000000  1
  O2-  O80  1  0.00000000  0.30836900  0.50000000  1
  O2-  O81  1  0.00000000  0.69163100  0.50000000  1
  O2-  O82  1  0.75000000  0.25000000  0.25000000  1
  O2-  O83  1  0.50000000  0.50000000  0.50000000  1
  O2-  O84  1  0.75000000  0.75000000  0.44163100  1
  O2-  O85  1  0.80836900  0.50000000  0.50000000  1
  O2-  O86  1  0.19163100  0.50000000  0.50000000  1
  O2-  O87  1  0.50000000  0.50000000  0.19163100  1
