# generated using pymatgen
data_Ta2Mo2O11
_symmetry_space_group_name_H-M   'P 1'
_cell_length_a   5.71117223
_cell_length_b   5.71117223
_cell_length_c   25.98789169
_cell_angle_alpha   90.00000000
_cell_angle_beta   90.00000000
_cell_angle_gamma   120.00000000
_symmetry_Int_Tables_number   1
_chemical_formula_structural   Ta2Mo2O11
_chemical_formula_sum   'Ta6 Mo6 O33'
_cell_volume   734.09487859
_cell_formula_units_Z   3
loop_
 _symmetry_equiv_pos_site_id
 _symmetry_equiv_pos_as_xyz
  1  'x, y, z'
loop_
 _atom_type_symbol
 _atom_type_oxidation_number
  Ta5+  5.0
  Mo6+  6.0
  O2-  -2.0
loop_
 _atom_site_type_symbol
 _atom_site_label
 _atom_site_symmetry_multiplicity
 _atom_site_fract_x
 _atom_site_fract_y
 _atom_site_fract_z
 _atom_site_occupancy
  Ta5+  Ta0  1  0.33333333  0.66666667  0.29478967  1
  Ta5+  Ta1  1  0.33333333  0.66666667  0.03854367  1
  Ta5+  Ta2  1  0.00000000  0.00000000  0.62812300  1
  Ta5+  Ta3  1  0.00000000  0.00000000  0.37187700  1
  Ta5+  Ta4  1  0.66666667  0.33333333  0.96145633  1
  Ta5+  Ta5  1  0.66666667  0.33333333  0.70521033  1
  Mo6+  Mo6  1  0.66666667  0.33333333  0.22048833  1
  Mo6+  Mo7  1  0.00000000  0.00000000  0.11284500  1
  Mo6+  Mo8  1  0.33333333  0.66666667  0.55382167  1
  Mo6+  Mo9  1  0.66666667  0.33333333  0.44617833  1
  Mo6+  Mo10  1  0.00000000  0.00000000  0.88715500  1
  Mo6+  Mo11  1  0.33333333  0.66666667  0.77951167  1
  O2-  O12  1  0.65517200  0.82758600  0.08877700  1
  O2-  O13  1  0.17241400  0.82758600  0.08877700  1
  O2-  O14  1  0.17241400  0.34482800  0.08877700  1
  O2-  O15  1  0.49425267  0.50574733  0.24455633  1
  O2-  O16  1  0.01149467  0.50574733  0.24455633  1
  O2-  O17  1  0.49425267  0.98850533  0.24455633  1
  O2-  O18  1  0.66666667  0.33333333  0.15387833  1
  O2-  O19  1  0.00000000  0.00000000  0.17945500  1
  O2-  O20  1  0.50000000  0.00000000  0.00000000  1
  O2-  O21  1  0.00000000  0.50000000  0.00000000  1
  O2-  O22  1  0.50000000  0.50000000  0.00000000  1
  O2-  O23  1  0.32183867  0.16091933  0.42211033  1
  O2-  O24  1  0.83908067  0.16091933  0.42211033  1
  O2-  O25  1  0.83908067  0.67816133  0.42211033  1
  O2-  O26  1  0.16091933  0.83908067  0.57788967  1
  O2-  O27  1  0.67816133  0.83908067  0.57788967  1
  O2-  O28  1  0.16091933  0.32183867  0.57788967  1
  O2-  O29  1  0.33333333  0.66666667  0.48721167  1
  O2-  O30  1  0.66666667  0.33333333  0.51278833  1
  O2-  O31  1  0.16666667  0.33333333  0.33333333  1
  O2-  O32  1  0.66666667  0.83333333  0.33333333  1
  O2-  O33  1  0.16666667  0.83333333  0.33333333  1
  O2-  O34  1  0.98850533  0.49425267  0.75544367  1
  O2-  O35  1  0.50574733  0.49425267  0.75544367  1
  O2-  O36  1  0.50574733  0.01149467  0.75544367  1
  O2-  O37  1  0.82758600  0.17241400  0.91122300  1
  O2-  O38  1  0.34482800  0.17241400  0.91122300  1
  O2-  O39  1  0.82758600  0.65517200  0.91122300  1
  O2-  O40  1  0.00000000  0.00000000  0.82054500  1
  O2-  O41  1  0.33333333  0.66666667  0.84612167  1
  O2-  O42  1  0.83333333  0.66666667  0.66666667  1
  O2-  O43  1  0.33333333  0.16666667  0.66666667  1
  O2-  O44  1  0.83333333  0.16666667  0.66666667  1
