# generated using pymatgen
data_Ta2O5
_symmetry_space_group_name_H-M   'P 1'
_cell_length_a   3.87120600
_cell_length_b   3.90443500
_cell_length_c   13.12844800
_cell_angle_alpha   90.00000000
_cell_angle_beta   90.00000000
_cell_angle_gamma   90.00000000
_symmetry_Int_Tables_number   1
_chemical_formula_structural   Ta2O5
_chemical_formula_sum   'Ta4 O10'
_cell_volume   198.43481383
_cell_formula_units_Z   2
loop_
 _symmetry_equiv_pos_site_id
 _symmetry_equiv_pos_as_xyz
  1  'x, y, z'
loop_
 _atom_type_symbol
 _atom_type_oxidation_number
  Ta5+  5.0
  O2-  -2.0
loop_
 _atom_site_type_symbol
 _atom_site_label
 _atom_site_symmetry_multiplicity
 _atom_site_fract_x
 _atom_site_fract_y
 _atom_site_fract_z
 _atom_site_occupancy
  Ta5+  Ta0  1  0.00000000  0.02332500  0.14583150  1
  Ta5+  Ta1  1  0.50000000  0.97667500  0.35416850  1
  Ta5+  Ta2  1  0.50000000  0.97667500  0.64583150  1
  Ta5+  Ta3  1  0.00000000  0.02332500  0.85416850  1
  O2-  O4  1  0.50000000  0.00166500  0.18497750  1
  O2-  O5  1  0.00000000  0.99833500  0.31502250  1
  O2-  O6  1  0.00000000  0.99833500  0.68497750  1
  O2-  O7  1  0.50000000  0.00166500  0.81502250  1
  O2-  O8  1  0.00000000  0.50697700  0.85153750  1
  O2-  O9  1  0.50000000  0.49302300  0.64846250  1
  O2-  O10  1  0.50000000  0.49302300  0.35153750  1
  O2-  O11  1  0.50000000  0.99496100  0.50000000  1
  O2-  O12  1  0.00000000  0.00503900  0.00000000  1
  O2-  O13  1  0.00000000  0.50697700  0.14846250  1
