# generated using pymatgen
data_Ta2Zn3O8
_symmetry_space_group_name_H-M   'P 1'
_cell_length_a   8.96953600
_cell_length_b   8.52074200
_cell_length_c   9.65011501
_cell_angle_alpha   90.00000000
_cell_angle_beta   115.74648197
_cell_angle_gamma   90.00000000
_symmetry_Int_Tables_number   1
_chemical_formula_structural   Ta2Zn3O8
_chemical_formula_sum   'Ta8 Zn12 O32'
_cell_volume   664.31193787
_cell_formula_units_Z   4
loop_
 _symmetry_equiv_pos_site_id
 _symmetry_equiv_pos_as_xyz
  1  'x, y, z'
loop_
 _atom_type_symbol
 _atom_type_oxidation_number
  Ta5+  5.0
  Zn2+  2.0
  O2-  -2.0
loop_
 _atom_site_type_symbol
 _atom_site_label
 _atom_site_symmetry_multiplicity
 _atom_site_fract_x
 _atom_site_fract_y
 _atom_site_fract_z
 _atom_site_occupancy
  Ta5+  Ta0  1  0.08036850  0.85881150  0.62689800  1
  Ta5+  Ta1  1  0.91963150  0.85881150  0.87310200  1
  Ta5+  Ta2  1  0.91963150  0.14118850  0.37310200  1
  Ta5+  Ta3  1  0.08036850  0.14118850  0.12689800  1
  Ta5+  Ta4  1  0.58036850  0.35881150  0.62689800  1
  Ta5+  Ta5  1  0.41963150  0.35881150  0.87310200  1
  Ta5+  Ta6  1  0.41963150  0.64118850  0.37310200  1
  Ta5+  Ta7  1  0.58036850  0.64118850  0.12689800  1
  Zn2+  Zn8  1  0.00000000  0.23841700  0.75000000  1
  Zn2+  Zn9  1  0.00000000  0.76158300  0.25000000  1
  Zn2+  Zn10  1  0.84114150  0.47861450  0.00302100  1
  Zn2+  Zn11  1  0.15885850  0.47861450  0.49697900  1
  Zn2+  Zn12  1  0.15885850  0.52138550  0.99697900  1
  Zn2+  Zn13  1  0.84114150  0.52138550  0.50302100  1
  Zn2+  Zn14  1  0.50000000  0.73841700  0.75000000  1
  Zn2+  Zn15  1  0.50000000  0.26158300  0.25000000  1
  Zn2+  Zn16  1  0.34114150  0.97861450  0.00302100  1
  Zn2+  Zn17  1  0.65885850  0.97861450  0.49697900  1
  Zn2+  Zn18  1  0.65885850  0.02138550  0.99697900  1
  Zn2+  Zn19  1  0.34114150  0.02138550  0.50302100  1
  O2-  O20  1  0.19787000  0.62293900  0.35450600  1
  O2-  O21  1  0.80213000  0.62293900  0.14549400  1
  O2-  O22  1  0.80213000  0.37706100  0.64549400  1
  O2-  O23  1  0.19787000  0.37706100  0.85450600  1
  O2-  O24  1  0.05225550  0.63820250  0.58859000  1
  O2-  O25  1  0.94774450  0.63820250  0.91141000  1
  O2-  O26  1  0.94774450  0.36179750  0.41141000  1
  O2-  O27  1  0.05225550  0.36179750  0.08859000  1
  O2-  O28  1  0.64928600  0.36656200  0.85331800  1
  O2-  O29  1  0.35071400  0.36656200  0.64668200  1
  O2-  O30  1  0.03738150  0.89954550  0.10307500  1
  O2-  O31  1  0.96261850  0.89954550  0.39692500  1
  O2-  O32  1  0.96261850  0.10045450  0.89692500  1
  O2-  O33  1  0.03738150  0.10045450  0.60307500  1
  O2-  O34  1  0.64928600  0.63343800  0.35331800  1
  O2-  O35  1  0.35071400  0.63343800  0.14668200  1
  O2-  O36  1  0.69787000  0.12293900  0.35450600  1
  O2-  O37  1  0.30213000  0.12293900  0.14549400  1
  O2-  O38  1  0.30213000  0.87706100  0.64549400  1
  O2-  O39  1  0.69787000  0.87706100  0.85450600  1
  O2-  O40  1  0.55225550  0.13820250  0.58859000  1
  O2-  O41  1  0.44774450  0.13820250  0.91141000  1
  O2-  O42  1  0.44774450  0.86179750  0.41141000  1
  O2-  O43  1  0.55225550  0.86179750  0.08859000  1
  O2-  O44  1  0.14928600  0.86656200  0.85331800  1
  O2-  O45  1  0.85071400  0.86656200  0.64668200  1
  O2-  O46  1  0.53738150  0.39954550  0.10307500  1
  O2-  O47  1  0.46261850  0.39954550  0.39692500  1
  O2-  O48  1  0.46261850  0.60045450  0.89692500  1
  O2-  O49  1  0.53738150  0.60045450  0.60307500  1
  O2-  O50  1  0.14928600  0.13343800  0.35331800  1
  O2-  O51  1  0.85071400  0.13343800  0.14668200  1
