# generated using pymatgen
data_Ta6TiTl2O18
_symmetry_space_group_name_H-M   'P 1'
_cell_length_a   13.18842400
_cell_length_b   7.63020600
_cell_length_c   8.34778565
_cell_angle_alpha   90.00000000
_cell_angle_beta   90.17879681
_cell_angle_gamma   90.00000000
_symmetry_Int_Tables_number   1
_chemical_formula_structural   Ta6TiTl2O18
_chemical_formula_sum   'Ta12 Ti2 Tl4 O36'
_cell_volume   840.03685113
_cell_formula_units_Z   2
loop_
 _symmetry_equiv_pos_site_id
 _symmetry_equiv_pos_as_xyz
  1  'x, y, z'
loop_
 _atom_type_symbol
 _atom_type_oxidation_number
  Ta5+  5.0
  Ti4+  4.0
  Tl+  1.0
  O2-  -2.0
loop_
 _atom_site_type_symbol
 _atom_site_label
 _atom_site_symmetry_multiplicity
 _atom_site_fract_x
 _atom_site_fract_y
 _atom_site_fract_z
 _atom_site_occupancy
  Ta5+  Ta0  1  0.58235050  0.75388450  0.84866300  1
  Ta5+  Ta1  1  0.58346350  0.24947750  0.84837500  1
  Ta5+  Ta2  1  0.83222400  0.00335200  0.84859100  1
  Ta5+  Ta3  1  0.41653650  0.24947750  0.15162500  1
  Ta5+  Ta4  1  0.41764950  0.75388450  0.15133700  1
  Ta5+  Ta5  1  0.16777600  0.00335200  0.15140900  1
  Ta5+  Ta6  1  0.08235050  0.25388450  0.84866300  1
  Ta5+  Ta7  1  0.08346350  0.74947750  0.84837500  1
  Ta5+  Ta8  1  0.33222400  0.50335200  0.84859100  1
  Ta5+  Ta9  1  0.91653650  0.74947750  0.15162500  1
  Ta5+  Ta10  1  0.91764950  0.25388450  0.15133700  1
  Ta5+  Ta11  1  0.66777600  0.50335200  0.15140900  1
  Ti4+  Ti12  1  0.50000000  0.50067000  0.50000000  1
  Ti4+  Ti13  1  0.00000000  0.00067000  0.50000000  1
  Tl+  Tl14  1  0.68059950  0.04229750  0.30718200  1
  Tl+  Tl15  1  0.31940050  0.04229750  0.69281800  1
  Tl+  Tl16  1  0.18059950  0.54229750  0.30718200  1
  Tl+  Tl17  1  0.81940050  0.54229750  0.69281800  1
  O2-  O18  1  0.72411450  0.17407550  0.84064900  1
  O2-  O19  1  0.72463750  0.82625050  0.83919100  1
  O2-  O20  1  0.55055600  0.00096400  0.84040500  1
  O2-  O21  1  0.27536250  0.82625050  0.16080900  1
  O2-  O22  1  0.27588550  0.17407550  0.15935100  1
  O2-  O23  1  0.44944400  0.00096400  0.15959500  1
  O2-  O24  1  0.42869750  0.28765250  0.89883500  1
  O2-  O25  1  0.42908350  0.71247950  0.89937100  1
  O2-  O26  1  0.14211250  0.00060950  0.89913300  1
  O2-  O27  1  0.57091650  0.71247950  0.10062900  1
  O2-  O28  1  0.57130250  0.28765250  0.10116500  1
  O2-  O29  1  0.85788750  0.00060950  0.10086700  1
  O2-  O30  1  0.56103800  0.68042800  0.63899200  1
  O2-  O31  1  0.56056700  0.31845500  0.63795300  1
  O2-  O32  1  0.87870500  0.99873900  0.63832900  1
  O2-  O33  1  0.43943300  0.31845500  0.36204700  1
  O2-  O34  1  0.43896200  0.68042800  0.36100800  1
  O2-  O35  1  0.12129500  0.99873900  0.36167100  1
  O2-  O36  1  0.22411450  0.67407550  0.84064900  1
  O2-  O37  1  0.22463750  0.32625050  0.83919100  1
  O2-  O38  1  0.05055600  0.50096400  0.84040500  1
  O2-  O39  1  0.77536250  0.32625050  0.16080900  1
  O2-  O40  1  0.77588550  0.67407550  0.15935100  1
  O2-  O41  1  0.94944400  0.50096400  0.15959500  1
  O2-  O42  1  0.92869750  0.78765250  0.89883500  1
  O2-  O43  1  0.92908350  0.21247950  0.89937100  1
  O2-  O44  1  0.64211250  0.50060950  0.89913300  1
  O2-  O45  1  0.07091650  0.21247950  0.10062900  1
  O2-  O46  1  0.07130250  0.78765250  0.10116500  1
  O2-  O47  1  0.35788750  0.50060950  0.10086700  1
  O2-  O48  1  0.06103800  0.18042800  0.63899200  1
  O2-  O49  1  0.06056700  0.81845500  0.63795300  1
  O2-  O50  1  0.37870500  0.49873900  0.63832900  1
  O2-  O51  1  0.93943300  0.81845500  0.36204700  1
  O2-  O52  1  0.93896200  0.18042800  0.36100800  1
  O2-  O53  1  0.62129500  0.49873900  0.36167100  1
