# generated using pymatgen
data_TaTlWO6
_symmetry_space_group_name_H-M   'P 1'
_cell_length_a   7.40845800
_cell_length_b   7.44286400
_cell_length_c   10.51581200
_cell_angle_alpha   90.00000000
_cell_angle_beta   90.00000000
_cell_angle_gamma   90.00000000
_symmetry_Int_Tables_number   1
_chemical_formula_structural   TaTlWO6
_chemical_formula_sum   'Ta4 Tl4 W4 O24'
_cell_volume   579.84340209
_cell_formula_units_Z   4
loop_
 _symmetry_equiv_pos_site_id
 _symmetry_equiv_pos_as_xyz
  1  'x, y, z'
loop_
 _atom_type_symbol
 _atom_type_oxidation_number
  Ta5+  5.0
  Tl+  1.0
  W6+  6.0
  O2-  -2.0
loop_
 _atom_site_type_symbol
 _atom_site_label
 _atom_site_symmetry_multiplicity
 _atom_site_fract_x
 _atom_site_fract_y
 _atom_site_fract_z
 _atom_site_occupancy
  Ta5+  Ta0  1  0.00295900  0.50000000  0.00000000  1
  Ta5+  Ta1  1  0.00295900  0.00000000  0.00000000  1
  Ta5+  Ta2  1  0.50295900  0.00000000  0.50000000  1
  Ta5+  Ta3  1  0.50295900  0.50000000  0.50000000  1
  Tl+  Tl4  1  0.56663100  0.25000000  0.15703300  1
  Tl+  Tl5  1  0.56663100  0.75000000  0.84296700  1
  Tl+  Tl6  1  0.06663100  0.75000000  0.65703300  1
  Tl+  Tl7  1  0.06663100  0.25000000  0.34296700  1
  W6+  W8  1  0.25302100  0.75000000  0.24971800  1
  W6+  W9  1  0.25302100  0.25000000  0.75028200  1
  W6+  W10  1  0.75302100  0.25000000  0.74971800  1
  W6+  W11  1  0.75302100  0.75000000  0.25028200  1
  O2-  O12  1  0.49998100  0.75000000  0.19126200  1
  O2-  O13  1  0.99755800  0.25000000  0.06485200  1
  O2-  O14  1  0.68751600  0.56583100  0.37210400  1
  O2-  O15  1  0.81040900  0.43416700  0.87314700  1
  O2-  O16  1  0.18751600  0.43416900  0.87210400  1
  O2-  O17  1  0.31040900  0.56583300  0.37314700  1
  O2-  O18  1  0.49998100  0.25000000  0.80873800  1
  O2-  O19  1  0.99755800  0.75000000  0.93514800  1
  O2-  O20  1  0.31040900  0.43416700  0.62685300  1
  O2-  O21  1  0.18751600  0.56583100  0.12789600  1
  O2-  O22  1  0.81040900  0.56583300  0.12685300  1
  O2-  O23  1  0.68751600  0.43416900  0.62789600  1
  O2-  O24  1  0.99998100  0.25000000  0.69126200  1
  O2-  O25  1  0.49755800  0.75000000  0.56485200  1
  O2-  O26  1  0.18751600  0.06583100  0.87210400  1
  O2-  O27  1  0.31040900  0.93416700  0.37314700  1
  O2-  O28  1  0.68751600  0.93416900  0.37210400  1
  O2-  O29  1  0.81040900  0.06583300  0.87314700  1
  O2-  O30  1  0.99998100  0.75000000  0.30873800  1
  O2-  O31  1  0.49755800  0.25000000  0.43514800  1
  O2-  O32  1  0.81040900  0.93416700  0.12685300  1
  O2-  O33  1  0.68751600  0.06583100  0.62789600  1
  O2-  O34  1  0.31040900  0.06583300  0.62685300  1
  O2-  O35  1  0.18751600  0.93416900  0.12789600  1
