# generated using pymatgen
data_TiCdO3
_symmetry_space_group_name_H-M   'P 1'
_cell_length_a   5.30652215
_cell_length_b   5.30652215
_cell_length_c   15.10425340
_cell_angle_alpha   90.00000000
_cell_angle_beta   90.00000000
_cell_angle_gamma   120.00000000
_symmetry_Int_Tables_number   1
_chemical_formula_structural   TiCdO3
_chemical_formula_sum   'Ti6 Cd6 O18'
_cell_volume   368.34082538
_cell_formula_units_Z   6
loop_
 _symmetry_equiv_pos_site_id
 _symmetry_equiv_pos_as_xyz
  1  'x, y, z'
loop_
 _atom_type_symbol
 _atom_type_oxidation_number
  Ti4+  4.0
  Cd2+  2.0
  O2-  -2.0
loop_
 _atom_site_type_symbol
 _atom_site_label
 _atom_site_symmetry_multiplicity
 _atom_site_fract_x
 _atom_site_fract_y
 _atom_site_fract_z
 _atom_site_occupancy
  Ti4+  Ti0  1  0.66666667  0.33333333  0.18409433  1
  Ti4+  Ti1  1  0.00000000  0.00000000  0.14923900  1
  Ti4+  Ti2  1  0.33333333  0.66666667  0.51742767  1
  Ti4+  Ti3  1  0.66666667  0.33333333  0.48257233  1
  Ti4+  Ti4  1  0.00000000  0.00000000  0.85076100  1
  Ti4+  Ti5  1  0.33333333  0.66666667  0.81590567  1
  Cd2+  Cd6  1  0.33333333  0.66666667  0.30339867  1
  Cd2+  Cd7  1  0.33333333  0.66666667  0.02993467  1
  Cd2+  Cd8  1  0.00000000  0.00000000  0.63673200  1
  Cd2+  Cd9  1  0.00000000  0.00000000  0.36326800  1
  Cd2+  Cd10  1  0.66666667  0.33333333  0.97006533  1
  Cd2+  Cd11  1  0.66666667  0.33333333  0.69660133  1
  O2-  O12  1  0.71238133  0.65598467  0.09307267  1
  O2-  O13  1  0.34401533  0.05639667  0.09307267  1
  O2-  O14  1  0.94360333  0.28761867  0.09307267  1
  O2-  O15  1  0.95428533  0.67734867  0.24026067  1
  O2-  O16  1  0.72306333  0.04571467  0.24026067  1
  O2-  O17  1  0.32265133  0.27693667  0.24026067  1
  O2-  O18  1  0.37904800  0.98931800  0.42640600  1
  O2-  O19  1  0.01068200  0.38973000  0.42640600  1
  O2-  O20  1  0.61027000  0.62095200  0.42640600  1
  O2-  O21  1  0.62095200  0.01068200  0.57359400  1
  O2-  O22  1  0.38973000  0.37904800  0.57359400  1
  O2-  O23  1  0.98931800  0.61027000  0.57359400  1
  O2-  O24  1  0.04571467  0.32265133  0.75973933  1
  O2-  O25  1  0.67734867  0.72306333  0.75973933  1
  O2-  O26  1  0.27693667  0.95428533  0.75973933  1
  O2-  O27  1  0.28761867  0.34401533  0.90692733  1
  O2-  O28  1  0.05639667  0.71238133  0.90692733  1
  O2-  O29  1  0.65598467  0.94360333  0.90692733  1
