# generated using pymatgen
data_TiSnO3
_symmetry_space_group_name_H-M   'P 1'
_cell_length_a   5.14180355
_cell_length_b   5.14180355
_cell_length_c   20.42160951
_cell_angle_alpha   90.00000000
_cell_angle_beta   90.00000000
_cell_angle_gamma   120.00000000
_symmetry_Int_Tables_number   1
_chemical_formula_structural   TiSnO3
_chemical_formula_sum   'Ti6 Sn6 O18'
_cell_volume   467.57529686
_cell_formula_units_Z   6
loop_
 _symmetry_equiv_pos_site_id
 _symmetry_equiv_pos_as_xyz
  1  'x, y, z'
loop_
 _atom_type_symbol
 _atom_type_oxidation_number
  Ti4+  4.0
  Sn2+  2.0
  O2-  -2.0
loop_
 _atom_site_type_symbol
 _atom_site_label
 _atom_site_symmetry_multiplicity
 _atom_site_fract_x
 _atom_site_fract_y
 _atom_site_fract_z
 _atom_site_occupancy
  Ti4+  Ti0  1  0.33333333  0.66666667  0.33193967  1
  Ti4+  Ti1  1  0.33333333  0.66666667  0.00139367  1
  Ti4+  Ti2  1  0.00000000  0.00000000  0.66527300  1
  Ti4+  Ti3  1  0.00000000  0.00000000  0.33472700  1
  Ti4+  Ti4  1  0.66666667  0.33333333  0.99860633  1
  Ti4+  Ti5  1  0.66666667  0.33333333  0.66806033  1
  Sn2+  Sn6  1  0.66666667  0.33333333  0.22523833  1
  Sn2+  Sn7  1  0.00000000  0.00000000  0.10809500  1
  Sn2+  Sn8  1  0.33333333  0.66666667  0.55857167  1
  Sn2+  Sn9  1  0.66666667  0.33333333  0.44142833  1
  Sn2+  Sn10  1  0.00000000  0.00000000  0.89190500  1
  Sn2+  Sn11  1  0.33333333  0.66666667  0.77476167  1
  O2-  O12  1  0.30853433  0.97481767  0.28050667  1
  O2-  O13  1  0.02518233  0.33371667  0.28050667  1
  O2-  O14  1  0.00038333  0.64186767  0.05282667  1
  O2-  O15  1  0.66628333  0.69146567  0.28050667  1
  O2-  O16  1  0.64148433  0.99961667  0.05282667  1
  O2-  O17  1  0.35813233  0.35851567  0.05282667  1
  O2-  O18  1  0.97520100  0.30815100  0.61384000  1
  O2-  O19  1  0.69184900  0.66705000  0.61384000  1
  O2-  O20  1  0.66705000  0.97520100  0.38616000  1
  O2-  O21  1  0.33295000  0.02479900  0.61384000  1
  O2-  O22  1  0.30815100  0.33295000  0.38616000  1
  O2-  O23  1  0.02479900  0.69184900  0.38616000  1
  O2-  O24  1  0.64186767  0.64148433  0.94717333  1
  O2-  O25  1  0.35851567  0.00038333  0.94717333  1
  O2-  O26  1  0.33371667  0.30853433  0.71949333  1
  O2-  O27  1  0.99961667  0.35813233  0.94717333  1
  O2-  O28  1  0.97481767  0.66628333  0.71949333  1
  O2-  O29  1  0.69146567  0.02518233  0.71949333  1
