# generated using pymatgen
data_TiTl2(GeO3)3
_symmetry_space_group_name_H-M   'P 1'
_cell_length_a   7.10262365
_cell_length_b   7.10262365
_cell_length_c   10.48469000
_cell_angle_alpha   90.00000000
_cell_angle_beta   90.00000000
_cell_angle_gamma   120.00000000
_symmetry_Int_Tables_number   1
_chemical_formula_structural   TiTl2(GeO3)3
_chemical_formula_sum   'Ti2 Tl4 Ge6 O18'
_cell_volume   458.06154299
_cell_formula_units_Z   2
loop_
 _symmetry_equiv_pos_site_id
 _symmetry_equiv_pos_as_xyz
  1  'x, y, z'
loop_
 _atom_type_symbol
 _atom_type_oxidation_number
  Ti4+  4.0
  Tl+  1.0
  Ge4+  4.0
  O2-  -2.0
loop_
 _atom_site_type_symbol
 _atom_site_label
 _atom_site_symmetry_multiplicity
 _atom_site_fract_x
 _atom_site_fract_y
 _atom_site_fract_z
 _atom_site_occupancy
  Ti4+  Ti0  1  0.00000000  0.00000000  0.00000000  1
  Ti4+  Ti1  1  0.00000000  0.00000000  0.50000000  1
  Tl+  Tl2  1  0.66666667  0.33333333  0.94253100  1
  Tl+  Tl3  1  0.33333333  0.66666667  0.44253100  1
  Tl+  Tl4  1  0.33333333  0.66666667  0.05746900  1
  Tl+  Tl5  1  0.66666667  0.33333333  0.55746900  1
  Ge4+  Ge6  1  0.87450400  0.63254400  0.25000000  1
  Ge4+  Ge7  1  0.75804000  0.12549600  0.25000000  1
  Ge4+  Ge8  1  0.36745600  0.24196000  0.25000000  1
  Ge4+  Ge9  1  0.24196000  0.87450400  0.75000000  1
  Ge4+  Ge10  1  0.63254400  0.75804000  0.75000000  1
  Ge4+  Ge11  1  0.12549600  0.36745600  0.75000000  1
  O2-  O12  1  0.22469700  0.99184600  0.89251300  1
  O2-  O13  1  0.23285100  0.22469700  0.39251300  1
  O2-  O14  1  0.99184600  0.76714900  0.39251300  1
  O2-  O15  1  0.00815400  0.23285100  0.89251300  1
  O2-  O16  1  0.76714900  0.77530300  0.89251300  1
  O2-  O17  1  0.77530300  0.00815400  0.39251300  1
  O2-  O18  1  0.77530300  0.00815400  0.10748700  1
  O2-  O19  1  0.76714900  0.77530300  0.60748700  1
  O2-  O20  1  0.00815400  0.23285100  0.60748700  1
  O2-  O21  1  0.99184600  0.76714900  0.10748700  1
  O2-  O22  1  0.23285100  0.22469700  0.10748700  1
  O2-  O23  1  0.22469700  0.99184600  0.60748700  1
  O2-  O24  1  0.06432400  0.58627700  0.75000000  1
  O2-  O25  1  0.47804700  0.06432400  0.25000000  1
  O2-  O26  1  0.58627700  0.52195300  0.25000000  1
  O2-  O27  1  0.41372300  0.47804700  0.75000000  1
  O2-  O28  1  0.52195300  0.93567600  0.75000000  1
  O2-  O29  1  0.93567600  0.41372300  0.25000000  1
