# generated using pymatgen
data_Tl3BO3
_symmetry_space_group_name_H-M   'P 1'
_cell_length_a   9.42539627
_cell_length_b   9.42539627
_cell_length_c   3.88735200
_cell_angle_alpha   90.00000000
_cell_angle_beta   90.00000000
_cell_angle_gamma   120.00000000
_symmetry_Int_Tables_number   1
_chemical_formula_structural   Tl3BO3
_chemical_formula_sum   'Tl6 B2 O6'
_cell_volume   299.07749602
_cell_formula_units_Z   2
loop_
 _symmetry_equiv_pos_site_id
 _symmetry_equiv_pos_as_xyz
  1  'x, y, z'
loop_
 _atom_type_symbol
 _atom_type_oxidation_number
  Tl+  1.0
  B3+  3.0
  O2-  -2.0
loop_
 _atom_site_type_symbol
 _atom_site_label
 _atom_site_symmetry_multiplicity
 _atom_site_fract_x
 _atom_site_fract_y
 _atom_site_fract_z
 _atom_site_occupancy
  Tl+  Tl0  1  0.64565500  0.94882100  0.25000000  1
  Tl+  Tl1  1  0.69683400  0.64565500  0.75000000  1
  Tl+  Tl2  1  0.94882100  0.30316600  0.75000000  1
  Tl+  Tl3  1  0.05117900  0.69683400  0.25000000  1
  Tl+  Tl4  1  0.30316600  0.35434500  0.25000000  1
  Tl+  Tl5  1  0.35434500  0.05117900  0.75000000  1
  B3+  B6  1  0.66666667  0.33333333  0.25000000  1
  B3+  B7  1  0.33333333  0.66666667  0.75000000  1
  O2-  O8  1  0.83674200  0.40197600  0.25000000  1
  O2-  O9  1  0.43476600  0.83674200  0.75000000  1
  O2-  O10  1  0.40197600  0.56523400  0.75000000  1
  O2-  O11  1  0.59802400  0.43476600  0.25000000  1
  O2-  O12  1  0.16325800  0.59802400  0.75000000  1
  O2-  O13  1  0.56523400  0.16325800  0.25000000  1
