# generated using pymatgen
data_TlBi(WO4)2
_symmetry_space_group_name_H-M   'P 1'
_cell_length_a   11.01175600
_cell_length_b   10.93615600
_cell_length_c   7.55138278
_cell_angle_alpha   90.00000000
_cell_angle_beta   130.07079321
_cell_angle_gamma   90.00000000
_symmetry_Int_Tables_number   1
_chemical_formula_structural   TlBi(WO4)2
_chemical_formula_sum   'Tl4 Bi4 W8 O32'
_cell_volume   695.90650963
_cell_formula_units_Z   4
loop_
 _symmetry_equiv_pos_site_id
 _symmetry_equiv_pos_as_xyz
  1  'x, y, z'
loop_
 _atom_type_symbol
 _atom_type_oxidation_number
  Tl+  1.0
  Bi3+  3.0
  W6+  6.0
  O2-  -2.0
loop_
 _atom_site_type_symbol
 _atom_site_label
 _atom_site_symmetry_multiplicity
 _atom_site_fract_x
 _atom_site_fract_y
 _atom_site_fract_z
 _atom_site_occupancy
  Tl+  Tl0  1  0.00000000  0.79552700  0.25000000  1
  Tl+  Tl1  1  0.00000000  0.20447300  0.75000000  1
  Tl+  Tl2  1  0.50000000  0.29552700  0.25000000  1
  Tl+  Tl3  1  0.50000000  0.70447300  0.75000000  1
  Bi3+  Bi4  1  0.00000000  0.21818700  0.25000000  1
  Bi3+  Bi5  1  0.00000000  0.78181300  0.75000000  1
  Bi3+  Bi6  1  0.50000000  0.71818700  0.25000000  1
  Bi3+  Bi7  1  0.50000000  0.28181300  0.75000000  1
  W6+  W8  1  0.19233500  0.49505800  0.21967800  1
  W6+  W9  1  0.80766500  0.50494200  0.78032200  1
  W6+  W10  1  0.80766500  0.49505800  0.28032200  1
  W6+  W11  1  0.19233500  0.50494200  0.71967800  1
  W6+  W12  1  0.69233500  0.99505800  0.21967800  1
  W6+  W13  1  0.30766500  0.00494200  0.78032200  1
  W6+  W14  1  0.30766500  0.99505800  0.28032200  1
  W6+  W15  1  0.69233500  0.00494200  0.71967800  1
  O2-  O16  1  0.18746650  0.56417150  0.44212100  1
  O2-  O17  1  0.81253350  0.43582850  0.55787900  1
  O2-  O18  1  0.81253350  0.56417150  0.05787900  1
  O2-  O19  1  0.18746650  0.43582850  0.94212100  1
  O2-  O20  1  0.72331600  0.34459700  0.13157700  1
  O2-  O21  1  0.27668400  0.65540300  0.86842300  1
  O2-  O22  1  0.27668400  0.34459700  0.36842300  1
  O2-  O23  1  0.72331600  0.65540300  0.63157700  1
  O2-  O24  1  0.98003400  0.39363500  0.02909000  1
  O2-  O25  1  0.01996600  0.60636500  0.97091000  1
  O2-  O26  1  0.01996600  0.39363500  0.47091000  1
  O2-  O27  1  0.98003400  0.60636500  0.52909000  1
  O2-  O28  1  0.36855650  0.58129850  0.31291300  1
  O2-  O29  1  0.63144350  0.41870150  0.68708700  1
  O2-  O30  1  0.63144350  0.58129850  0.18708700  1
  O2-  O31  1  0.36855650  0.41870150  0.81291300  1
  O2-  O32  1  0.68746650  0.06417150  0.44212100  1
  O2-  O33  1  0.31253350  0.93582850  0.55787900  1
  O2-  O34  1  0.31253350  0.06417150  0.05787900  1
  O2-  O35  1  0.68746650  0.93582850  0.94212100  1
  O2-  O36  1  0.22331600  0.84459700  0.13157700  1
  O2-  O37  1  0.77668400  0.15540300  0.86842300  1
  O2-  O38  1  0.77668400  0.84459700  0.36842300  1
  O2-  O39  1  0.22331600  0.15540300  0.63157700  1
  O2-  O40  1  0.48003400  0.89363500  0.02909000  1
  O2-  O41  1  0.51996600  0.10636500  0.97091000  1
  O2-  O42  1  0.51996600  0.89363500  0.47091000  1
  O2-  O43  1  0.48003400  0.10636500  0.52909000  1
  O2-  O44  1  0.86855650  0.08129850  0.31291300  1
  O2-  O45  1  0.13144350  0.91870150  0.68708700  1
  O2-  O46  1  0.13144350  0.08129850  0.18708700  1
  O2-  O47  1  0.86855650  0.91870150  0.81291300  1
