# generated using pymatgen
data_TlPt3O4
_symmetry_space_group_name_H-M   'P 1'
_cell_length_a   9.81814800
_cell_length_b   9.81814800
_cell_length_c   9.81814800
_cell_angle_alpha   90.00000000
_cell_angle_beta   90.00000000
_cell_angle_gamma   90.00000000
_symmetry_Int_Tables_number   1
_chemical_formula_structural   TlPt3O4
_chemical_formula_sum   'Tl8 Pt24 O32'
_cell_volume   946.43049062
_cell_formula_units_Z   8
loop_
 _symmetry_equiv_pos_site_id
 _symmetry_equiv_pos_as_xyz
  1  'x, y, z'
loop_
 _atom_type_symbol
 _atom_type_oxidation_number
  Tl+  1.0
  Pt2.33333333+  2.3333333333333335
  O2-  -2.0
loop_
 _atom_site_type_symbol
 _atom_site_label
 _atom_site_symmetry_multiplicity
 _atom_site_fract_x
 _atom_site_fract_y
 _atom_site_fract_z
 _atom_site_occupancy
  Tl+  Tl0  1  0.50000000  0.00000000  0.00000000  1
  Tl+  Tl1  1  0.00000000  0.00000000  0.00000000  1
  Tl+  Tl2  1  0.50000000  0.50000000  0.50000000  1
  Tl+  Tl3  1  0.00000000  0.50000000  0.50000000  1
  Tl+  Tl4  1  0.00000000  0.00000000  0.50000000  1
  Tl+  Tl5  1  0.50000000  0.00000000  0.50000000  1
  Tl+  Tl6  1  0.00000000  0.50000000  0.00000000  1
  Tl+  Tl7  1  0.50000000  0.50000000  0.00000000  1
  Pt2.33333333+  Pt8  1  0.00000000  0.75000000  0.75000000  1
  Pt2.33333333+  Pt9  1  0.00000000  0.25000000  0.75000000  1
  Pt2.33333333+  Pt10  1  0.75000000  0.00000000  0.75000000  1
  Pt2.33333333+  Pt11  1  0.25000000  0.00000000  0.75000000  1
  Pt2.33333333+  Pt12  1  0.25000000  0.25000000  0.00000000  1
  Pt2.33333333+  Pt13  1  0.25000000  0.75000000  0.00000000  1
  Pt2.33333333+  Pt14  1  0.00000000  0.25000000  0.25000000  1
  Pt2.33333333+  Pt15  1  0.00000000  0.75000000  0.25000000  1
  Pt2.33333333+  Pt16  1  0.75000000  0.50000000  0.25000000  1
  Pt2.33333333+  Pt17  1  0.25000000  0.50000000  0.25000000  1
  Pt2.33333333+  Pt18  1  0.25000000  0.75000000  0.50000000  1
  Pt2.33333333+  Pt19  1  0.25000000  0.25000000  0.50000000  1
  Pt2.33333333+  Pt20  1  0.50000000  0.75000000  0.25000000  1
  Pt2.33333333+  Pt21  1  0.50000000  0.25000000  0.25000000  1
  Pt2.33333333+  Pt22  1  0.25000000  0.00000000  0.25000000  1
  Pt2.33333333+  Pt23  1  0.75000000  0.00000000  0.25000000  1
  Pt2.33333333+  Pt24  1  0.75000000  0.25000000  0.50000000  1
  Pt2.33333333+  Pt25  1  0.75000000  0.75000000  0.50000000  1
  Pt2.33333333+  Pt26  1  0.50000000  0.25000000  0.75000000  1
  Pt2.33333333+  Pt27  1  0.50000000  0.75000000  0.75000000  1
  Pt2.33333333+  Pt28  1  0.25000000  0.50000000  0.75000000  1
  Pt2.33333333+  Pt29  1  0.75000000  0.50000000  0.75000000  1
  Pt2.33333333+  Pt30  1  0.75000000  0.75000000  0.00000000  1
  Pt2.33333333+  Pt31  1  0.75000000  0.25000000  0.00000000  1
  O2-  O32  1  0.14244700  0.64244700  0.64244700  1
  O2-  O33  1  0.35755300  0.35755300  0.85755300  1
  O2-  O34  1  0.35755300  0.85755300  0.64244700  1
  O2-  O35  1  0.35755300  0.64244700  0.85755300  1
  O2-  O36  1  0.14244700  0.14244700  0.85755300  1
  O2-  O37  1  0.14244700  0.35755300  0.64244700  1
  O2-  O38  1  0.14244700  0.85755300  0.85755300  1
  O2-  O39  1  0.35755300  0.14244700  0.64244700  1
  O2-  O40  1  0.14244700  0.14244700  0.14244700  1
  O2-  O41  1  0.35755300  0.85755300  0.35755300  1
  O2-  O42  1  0.35755300  0.35755300  0.14244700  1
  O2-  O43  1  0.35755300  0.14244700  0.35755300  1
  O2-  O44  1  0.14244700  0.64244700  0.35755300  1
  O2-  O45  1  0.14244700  0.85755300  0.14244700  1
  O2-  O46  1  0.14244700  0.35755300  0.35755300  1
  O2-  O47  1  0.35755300  0.64244700  0.14244700  1
  O2-  O48  1  0.64244700  0.64244700  0.14244700  1
  O2-  O49  1  0.85755300  0.35755300  0.35755300  1
  O2-  O50  1  0.85755300  0.85755300  0.14244700  1
  O2-  O51  1  0.85755300  0.64244700  0.35755300  1
  O2-  O52  1  0.64244700  0.14244700  0.35755300  1
  O2-  O53  1  0.64244700  0.35755300  0.14244700  1
  O2-  O54  1  0.64244700  0.85755300  0.35755300  1
  O2-  O55  1  0.85755300  0.14244700  0.14244700  1
  O2-  O56  1  0.64244700  0.14244700  0.64244700  1
  O2-  O57  1  0.85755300  0.85755300  0.85755300  1
  O2-  O58  1  0.85755300  0.35755300  0.64244700  1
  O2-  O59  1  0.85755300  0.14244700  0.85755300  1
  O2-  O60  1  0.64244700  0.64244700  0.85755300  1
  O2-  O61  1  0.64244700  0.85755300  0.64244700  1
  O2-  O62  1  0.64244700  0.35755300  0.85755300  1
  O2-  O63  1  0.85755300  0.64244700  0.64244700  1
