# generated using pymatgen
data_TlSbWO6
_symmetry_space_group_name_H-M   'P 1'
_cell_length_a   7.31221000
_cell_length_b   7.41808600
_cell_length_c   10.46489800
_cell_angle_alpha   90.00000000
_cell_angle_beta   90.00000000
_cell_angle_gamma   90.00000000
_symmetry_Int_Tables_number   1
_chemical_formula_structural   TlSbWO6
_chemical_formula_sum   'Tl4 Sb4 W4 O24'
_cell_volume   567.64330378
_cell_formula_units_Z   4
loop_
 _symmetry_equiv_pos_site_id
 _symmetry_equiv_pos_as_xyz
  1  'x, y, z'
loop_
 _atom_type_symbol
 _atom_type_oxidation_number
  Tl+  1.0
  Sb5+  5.0
  W6+  6.0
  O2-  -2.0
loop_
 _atom_site_type_symbol
 _atom_site_label
 _atom_site_symmetry_multiplicity
 _atom_site_fract_x
 _atom_site_fract_y
 _atom_site_fract_z
 _atom_site_occupancy
  Tl+  Tl0  1  0.25000000  0.44344100  0.84784900  1
  Tl+  Tl1  1  0.75000000  0.44344100  0.15215100  1
  Tl+  Tl2  1  0.75000000  0.94344100  0.34784900  1
  Tl+  Tl3  1  0.25000000  0.94344100  0.65215100  1
  Sb5+  Sb4  1  0.00000000  0.99904700  0.00000000  1
  Sb5+  Sb5  1  0.50000000  0.99904700  0.00000000  1
  Sb5+  Sb6  1  0.50000000  0.49904700  0.50000000  1
  Sb5+  Sb7  1  0.00000000  0.49904700  0.50000000  1
  W6+  W8  1  0.75000000  0.74664400  0.75186200  1
  W6+  W9  1  0.25000000  0.74664400  0.24813800  1
  W6+  W10  1  0.25000000  0.24664400  0.25186200  1
  W6+  W11  1  0.75000000  0.24664400  0.74813800  1
  O2-  O12  1  0.75000000  0.49953900  0.80809300  1
  O2-  O13  1  0.75000000  0.50268500  0.42487400  1
  O2-  O14  1  0.43915450  0.80844950  0.12807750  1
  O2-  O15  1  0.06116050  0.19287250  0.12690750  1
  O2-  O16  1  0.06084550  0.80844950  0.12807750  1
  O2-  O17  1  0.43883950  0.19287250  0.12690750  1
  O2-  O18  1  0.25000000  0.49953900  0.19190700  1
  O2-  O19  1  0.25000000  0.50268500  0.57512600  1
  O2-  O20  1  0.56116050  0.19287250  0.87309250  1
  O2-  O21  1  0.93915450  0.80844950  0.87192250  1
  O2-  O22  1  0.93883950  0.19287250  0.87309250  1
  O2-  O23  1  0.56084550  0.80844950  0.87192250  1
  O2-  O24  1  0.25000000  0.99953900  0.30809300  1
  O2-  O25  1  0.25000000  0.00268500  0.92487400  1
  O2-  O26  1  0.93915450  0.30844950  0.62807750  1
  O2-  O27  1  0.56116050  0.69287250  0.62690750  1
  O2-  O28  1  0.56084550  0.30844950  0.62807750  1
  O2-  O29  1  0.93883950  0.69287250  0.62690750  1
  O2-  O30  1  0.75000000  0.99953900  0.69190700  1
  O2-  O31  1  0.75000000  0.00268500  0.07512600  1
  O2-  O32  1  0.06116050  0.69287250  0.37309250  1
  O2-  O33  1  0.43915450  0.30844950  0.37192250  1
  O2-  O34  1  0.43883950  0.69287250  0.37309250  1
  O2-  O35  1  0.06084550  0.30844950  0.37192250  1
