# generated using pymatgen
data_V2CdO6
_symmetry_space_group_name_H-M   'P 1'
_cell_length_a   10.08756800
_cell_length_b   3.65814800
_cell_length_c   7.22041022
_cell_angle_alpha   90.00000000
_cell_angle_beta   102.87369532
_cell_angle_gamma   90.00000000
_symmetry_Int_Tables_number   1
_chemical_formula_structural   V2CdO6
_chemical_formula_sum   'V4 Cd2 O12'
_cell_volume   259.74875113
_cell_formula_units_Z   2
loop_
 _symmetry_equiv_pos_site_id
 _symmetry_equiv_pos_as_xyz
  1  'x, y, z'
loop_
 _atom_type_symbol
 _atom_type_oxidation_number
  V5+  5.0
  Cd2+  2.0
  O2-  -2.0
loop_
 _atom_site_type_symbol
 _atom_site_label
 _atom_site_symmetry_multiplicity
 _atom_site_fract_x
 _atom_site_fract_y
 _atom_site_fract_z
 _atom_site_occupancy
  V5+  V0  1  0.76678400  0.00000000  0.32780300  1
  V5+  V1  1  0.73321600  0.50000000  0.67219700  1
  V5+  V2  1  0.26678400  0.50000000  0.32780300  1
  V5+  V3  1  0.23321600  0.00000000  0.67219700  1
  Cd2+  Cd4  1  0.00000000  0.00000000  0.00000000  1
  Cd2+  Cd5  1  0.50000000  0.50000000  0.00000000  1
  O2-  O6  1  0.91647700  0.00000000  0.26578600  1
  O2-  O7  1  0.74766900  0.00000000  0.60109800  1
  O2-  O8  1  0.75233100  0.50000000  0.39890200  1
  O2-  O9  1  0.63906000  0.00000000  0.12592500  1
  O2-  O10  1  0.86094000  0.50000000  0.87407500  1
  O2-  O11  1  0.58352300  0.50000000  0.73421400  1
  O2-  O12  1  0.41647700  0.50000000  0.26578600  1
  O2-  O13  1  0.24766900  0.50000000  0.60109800  1
  O2-  O14  1  0.25233100  0.00000000  0.39890200  1
  O2-  O15  1  0.13906000  0.50000000  0.12592500  1
  O2-  O16  1  0.36094000  0.00000000  0.87407500  1
  O2-  O17  1  0.08352300  0.00000000  0.73421400  1
