# generated using pymatgen
data_V2Zn2O7
_symmetry_space_group_name_H-M   'P 1'
_cell_length_a   7.71077600
_cell_length_b   8.40261400
_cell_length_c   10.28343385
_cell_angle_alpha   90.00000000
_cell_angle_beta   111.54766231
_cell_angle_gamma   90.00000000
_symmetry_Int_Tables_number   1
_chemical_formula_structural   V2Zn2O7
_chemical_formula_sum   'V8 Zn8 O28'
_cell_volume   619.70653788
_cell_formula_units_Z   4
loop_
 _symmetry_equiv_pos_site_id
 _symmetry_equiv_pos_as_xyz
  1  'x, y, z'
loop_
 _atom_type_symbol
 _atom_type_oxidation_number
  V5+  5.0
  Zn2+  2.0
  O2-  -2.0
loop_
 _atom_site_type_symbol
 _atom_site_label
 _atom_site_symmetry_multiplicity
 _atom_site_fract_x
 _atom_site_fract_y
 _atom_site_fract_z
 _atom_site_occupancy
  V5+  V0  1  0.73878850  0.25707850  0.29272600  1
  V5+  V1  1  0.26121150  0.25707850  0.20727400  1
  V5+  V2  1  0.26121150  0.74292150  0.70727400  1
  V5+  V3  1  0.73878850  0.74292150  0.79272600  1
  V5+  V4  1  0.23878850  0.75707850  0.29272600  1
  V5+  V5  1  0.76121150  0.75707850  0.20727400  1
  V5+  V6  1  0.76121150  0.24292150  0.70727400  1
  V5+  V7  1  0.23878850  0.24292150  0.79272600  1
  Zn2+  Zn8  1  0.67136000  0.07632900  0.97734200  1
  Zn2+  Zn9  1  0.32864000  0.07632900  0.52265800  1
  Zn2+  Zn10  1  0.32864000  0.92367100  0.02265800  1
  Zn2+  Zn11  1  0.67136000  0.92367100  0.47734200  1
  Zn2+  Zn12  1  0.17136000  0.57632900  0.97734200  1
  Zn2+  Zn13  1  0.82864000  0.57632900  0.52265800  1
  Zn2+  Zn14  1  0.82864000  0.42367100  0.02265800  1
  Zn2+  Zn15  1  0.17136000  0.42367100  0.47734200  1
  O2-  O16  1  0.77107150  0.08347550  0.38176600  1
  O2-  O17  1  0.22892850  0.08347550  0.11823400  1
  O2-  O18  1  0.22892850  0.91652450  0.61823400  1
  O2-  O19  1  0.77107150  0.91652450  0.88176600  1
  O2-  O20  1  0.38847500  0.90201900  0.39684500  1
  O2-  O21  1  0.61152500  0.90201900  0.10315500  1
  O2-  O22  1  0.61152500  0.09798100  0.60315500  1
  O2-  O23  1  0.38847500  0.09798100  0.89684500  1
  O2-  O24  1  0.50000000  0.68127900  0.75000000  1
  O2-  O25  1  0.50000000  0.31872100  0.25000000  1
  O2-  O26  1  0.27914850  0.26888950  0.63674300  1
  O2-  O27  1  0.72085150  0.26888950  0.86325700  1
  O2-  O28  1  0.72085150  0.73111050  0.36325700  1
  O2-  O29  1  0.27914850  0.73111050  0.13674300  1
  O2-  O30  1  0.27107150  0.58347550  0.38176600  1
  O2-  O31  1  0.72892850  0.58347550  0.11823400  1
  O2-  O32  1  0.72892850  0.41652450  0.61823400  1
  O2-  O33  1  0.27107150  0.41652450  0.88176600  1
  O2-  O34  1  0.88847500  0.40201900  0.39684500  1
  O2-  O35  1  0.11152500  0.40201900  0.10315500  1
  O2-  O36  1  0.11152500  0.59798100  0.60315500  1
  O2-  O37  1  0.88847500  0.59798100  0.89684500  1
  O2-  O38  1  0.00000000  0.18127900  0.75000000  1
  O2-  O39  1  0.00000000  0.81872100  0.25000000  1
  O2-  O40  1  0.77914850  0.76888950  0.63674300  1
  O2-  O41  1  0.22085150  0.76888950  0.86325700  1
  O2-  O42  1  0.22085150  0.23111050  0.36325700  1
  O2-  O43  1  0.77914850  0.23111050  0.13674300  1
