# generated using pymatgen
data_VAgO3
_symmetry_space_group_name_H-M   'P 1'
_cell_length_a   10.97500800
_cell_length_b   10.58813600
_cell_length_c   5.63352376
_cell_angle_alpha   90.00000000
_cell_angle_beta   107.47384007
_cell_angle_gamma   90.00000000
_symmetry_Int_Tables_number   1
_chemical_formula_structural   VAgO3
_chemical_formula_sum   'V8 Ag8 O24'
_cell_volume   624.43388049
_cell_formula_units_Z   8
loop_
 _symmetry_equiv_pos_site_id
 _symmetry_equiv_pos_as_xyz
  1  'x, y, z'
loop_
 _atom_type_symbol
 _atom_type_oxidation_number
  V5+  5.0
  Ag+  1.0
  O2-  -2.0
loop_
 _atom_site_type_symbol
 _atom_site_label
 _atom_site_symmetry_multiplicity
 _atom_site_fract_x
 _atom_site_fract_y
 _atom_site_fract_z
 _atom_site_occupancy
  V5+  V0  1  0.69576450  0.58277750  0.26982800  1
  V5+  V1  1  0.30423550  0.58277750  0.23017200  1
  V5+  V2  1  0.30423550  0.41722250  0.73017200  1
  V5+  V3  1  0.69576450  0.41722250  0.76982800  1
  V5+  V4  1  0.19576450  0.08277750  0.26982800  1
  V5+  V5  1  0.80423550  0.08277750  0.23017200  1
  V5+  V6  1  0.80423550  0.91722250  0.73017200  1
  V5+  V7  1  0.19576450  0.91722250  0.76982800  1
  Ag+  Ag8  1  0.00000000  0.75884300  0.25000000  1
  Ag+  Ag9  1  0.00000000  0.24115700  0.75000000  1
  Ag+  Ag10  1  0.00000000  0.40598700  0.25000000  1
  Ag+  Ag11  1  0.00000000  0.59401300  0.75000000  1
  Ag+  Ag12  1  0.50000000  0.25884300  0.25000000  1
  Ag+  Ag13  1  0.50000000  0.74115700  0.75000000  1
  Ag+  Ag14  1  0.50000000  0.90598700  0.25000000  1
  Ag+  Ag15  1  0.50000000  0.09401300  0.75000000  1
  O2-  O16  1  0.64769750  0.45598550  0.04331800  1
  O2-  O17  1  0.35230250  0.45598550  0.45668200  1
  O2-  O18  1  0.35230250  0.54401450  0.95668200  1
  O2-  O19  1  0.64769750  0.54401450  0.54331800  1
  O2-  O20  1  0.12885050  0.22044350  0.14316500  1
  O2-  O21  1  0.87114950  0.22044350  0.35683500  1
  O2-  O22  1  0.87114950  0.77955650  0.85683500  1
  O2-  O23  1  0.12885050  0.77955650  0.64316500  1
  O2-  O24  1  0.85845850  0.40829350  0.85419300  1
  O2-  O25  1  0.14154150  0.40829350  0.64580700  1
  O2-  O26  1  0.14154150  0.59170650  0.14580700  1
  O2-  O27  1  0.85845850  0.59170650  0.35419300  1
  O2-  O28  1  0.14769750  0.95598550  0.04331800  1
  O2-  O29  1  0.85230250  0.95598550  0.45668200  1
  O2-  O30  1  0.85230250  0.04401450  0.95668200  1
  O2-  O31  1  0.14769750  0.04401450  0.54331800  1
  O2-  O32  1  0.62885050  0.72044350  0.14316500  1
  O2-  O33  1  0.37114950  0.72044350  0.35683500  1
  O2-  O34  1  0.37114950  0.27955650  0.85683500  1
  O2-  O35  1  0.62885050  0.27955650  0.64316500  1
  O2-  O36  1  0.35845850  0.90829350  0.85419300  1
  O2-  O37  1  0.64154150  0.90829350  0.64580700  1
  O2-  O38  1  0.64154150  0.09170650  0.14580700  1
  O2-  O39  1  0.35845850  0.09170650  0.35419300  1
