# generated using pymatgen
data_VBiO4
_symmetry_space_group_name_H-M   'P 1'
_cell_length_a   7.40879400
_cell_length_b   7.40879400
_cell_length_c   6.50787600
_cell_angle_alpha   90.00000000
_cell_angle_beta   90.00000000
_cell_angle_gamma   90.00000000
_symmetry_Int_Tables_number   1
_chemical_formula_structural   VBiO4
_chemical_formula_sum   'V4 Bi4 O16'
_cell_volume   357.21880091
_cell_formula_units_Z   4
loop_
 _symmetry_equiv_pos_site_id
 _symmetry_equiv_pos_as_xyz
  1  'x, y, z'
loop_
 _atom_type_symbol
 _atom_type_oxidation_number
  V5+  5.0
  Bi3+  3.0
  O2-  -2.0
loop_
 _atom_site_type_symbol
 _atom_site_label
 _atom_site_symmetry_multiplicity
 _atom_site_fract_x
 _atom_site_fract_y
 _atom_site_fract_z
 _atom_site_occupancy
  V5+  V0  1  0.50000000  0.00000000  0.25000000  1
  V5+  V1  1  0.00000000  0.00000000  0.00000000  1
  V5+  V2  1  0.00000000  0.50000000  0.75000000  1
  V5+  V3  1  0.50000000  0.50000000  0.50000000  1
  Bi3+  Bi4  1  0.50000000  0.50000000  0.00000000  1
  Bi3+  Bi5  1  0.00000000  0.50000000  0.25000000  1
  Bi3+  Bi6  1  0.00000000  0.00000000  0.50000000  1
  Bi3+  Bi7  1  0.50000000  0.00000000  0.75000000  1
  O2-  O8  1  0.18158300  0.00000000  0.82864800  1
  O2-  O9  1  0.50000000  0.18158300  0.07864800  1
  O2-  O10  1  0.18158300  0.50000000  0.92135200  1
  O2-  O11  1  0.00000000  0.31841700  0.57864800  1
  O2-  O12  1  0.50000000  0.68158300  0.67135200  1
  O2-  O13  1  0.31841700  0.50000000  0.32864800  1
  O2-  O14  1  0.00000000  0.81841700  0.17135200  1
  O2-  O15  1  0.31841700  0.00000000  0.42135200  1
  O2-  O16  1  0.68158300  0.50000000  0.32864800  1
  O2-  O17  1  0.00000000  0.68158300  0.57864800  1
  O2-  O18  1  0.68158300  0.00000000  0.42135200  1
  O2-  O19  1  0.50000000  0.81841700  0.07864800  1
  O2-  O20  1  0.00000000  0.18158300  0.17135200  1
  O2-  O21  1  0.81841700  0.00000000  0.82864800  1
  O2-  O22  1  0.50000000  0.31841700  0.67135200  1
  O2-  O23  1  0.81841700  0.50000000  0.92135200  1
