# generated using pymatgen
data_VCd2BiO6
_symmetry_space_group_name_H-M   'P 1'
_cell_length_a   8.89817600
_cell_length_b   11.53497600
_cell_length_c   5.73933200
_cell_angle_alpha   90.00000000
_cell_angle_beta   90.00000000
_cell_angle_gamma   90.00000000
_symmetry_Int_Tables_number   1
_chemical_formula_structural   VCd2BiO6
_chemical_formula_sum   'V4 Cd8 Bi4 O24'
_cell_volume   589.08645182
_cell_formula_units_Z   4
loop_
 _symmetry_equiv_pos_site_id
 _symmetry_equiv_pos_as_xyz
  1  'x, y, z'
loop_
 _atom_type_symbol
 _atom_type_oxidation_number
  V5+  5.0
  Cd2+  2.0
  Bi3+  3.0
  O2-  -2.0
loop_
 _atom_site_type_symbol
 _atom_site_label
 _atom_site_symmetry_multiplicity
 _atom_site_fract_x
 _atom_site_fract_y
 _atom_site_fract_z
 _atom_site_occupancy
  V5+  V0  1  0.50000000  0.33557800  0.51892000  1
  V5+  V1  1  0.50000000  0.66442200  0.01892000  1
  V5+  V2  1  0.00000000  0.83557800  0.51892000  1
  V5+  V3  1  0.00000000  0.16442200  0.01892000  1
  Cd2+  Cd4  1  0.20619550  0.88615950  0.01725700  1
  Cd2+  Cd5  1  0.79380450  0.11384050  0.51725700  1
  Cd2+  Cd6  1  0.20619550  0.11384050  0.51725700  1
  Cd2+  Cd7  1  0.79380450  0.88615950  0.01725700  1
  Cd2+  Cd8  1  0.70619550  0.38615950  0.01725700  1
  Cd2+  Cd9  1  0.29380450  0.61384050  0.51725700  1
  Cd2+  Cd10  1  0.70619550  0.61384050  0.51725700  1
  Cd2+  Cd11  1  0.29380450  0.38615950  0.01725700  1
  Bi3+  Bi12  1  0.50000000  0.09485700  0.02307900  1
  Bi3+  Bi13  1  0.50000000  0.90514300  0.52307900  1
  Bi3+  Bi14  1  0.00000000  0.59485700  0.02307900  1
  Bi3+  Bi15  1  0.00000000  0.40514300  0.52307900  1
  O2-  O16  1  0.65861700  0.27966500  0.37570700  1
  O2-  O17  1  0.34138300  0.72033500  0.87570700  1
  O2-  O18  1  0.65861700  0.72033500  0.87570700  1
  O2-  O19  1  0.34138300  0.27966500  0.37570700  1
  O2-  O20  1  0.34553350  0.99792450  0.27172400  1
  O2-  O21  1  0.65446650  0.00207550  0.77172400  1
  O2-  O22  1  0.34553350  0.00207550  0.77172400  1
  O2-  O23  1  0.65446650  0.99792450  0.27172400  1
  O2-  O24  1  0.50000000  0.29363300  0.81579600  1
  O2-  O25  1  0.50000000  0.70636700  0.31579600  1
  O2-  O26  1  0.50000000  0.48483400  0.52283100  1
  O2-  O27  1  0.50000000  0.51516600  0.02283100  1
  O2-  O28  1  0.15861700  0.77966500  0.37570700  1
  O2-  O29  1  0.84138300  0.22033500  0.87570700  1
  O2-  O30  1  0.15861700  0.22033500  0.87570700  1
  O2-  O31  1  0.84138300  0.77966500  0.37570700  1
  O2-  O32  1  0.84553350  0.49792450  0.27172400  1
  O2-  O33  1  0.15446650  0.50207550  0.77172400  1
  O2-  O34  1  0.84553350  0.50207550  0.77172400  1
  O2-  O35  1  0.15446650  0.49792450  0.27172400  1
  O2-  O36  1  0.00000000  0.79363300  0.81579600  1
  O2-  O37  1  0.00000000  0.20636700  0.31579600  1
  O2-  O38  1  0.00000000  0.98483400  0.52283100  1
  O2-  O39  1  0.00000000  0.01516600  0.02283100  1
