# generated using pymatgen
data_Y2Be2SiO7
_symmetry_space_group_name_H-M   'P 1'
_cell_length_a   7.34937800
_cell_length_b   7.34937800
_cell_length_c   4.80136400
_cell_angle_alpha   90.00000000
_cell_angle_beta   90.00000000
_cell_angle_gamma   90.00000000
_symmetry_Int_Tables_number   1
_chemical_formula_structural   Y2Be2SiO7
_chemical_formula_sum   'Y4 Be4 Si2 O14'
_cell_volume   259.33778776
_cell_formula_units_Z   2
loop_
 _symmetry_equiv_pos_site_id
 _symmetry_equiv_pos_as_xyz
  1  'x, y, z'
loop_
 _atom_type_symbol
 _atom_type_oxidation_number
  Y3+  3.0
  Be2+  2.0
  Si4+  4.0
  O2-  -2.0
loop_
 _atom_site_type_symbol
 _atom_site_label
 _atom_site_symmetry_multiplicity
 _atom_site_fract_x
 _atom_site_fract_y
 _atom_site_fract_z
 _atom_site_occupancy
  Y3+  Y0  1  0.34099300  0.15900700  0.50750900  1
  Y3+  Y1  1  0.15900700  0.65900700  0.49249100  1
  Y3+  Y2  1  0.84099300  0.34099300  0.49249100  1
  Y3+  Y3  1  0.65900700  0.84099300  0.50750900  1
  Be2+  Be4  1  0.63666700  0.13666700  0.04015500  1
  Be2+  Be5  1  0.86333300  0.63666700  0.95984500  1
  Be2+  Be6  1  0.13666700  0.36333300  0.95984500  1
  Be2+  Be7  1  0.36333300  0.86333300  0.04015500  1
  Si4+  Si8  1  0.50000000  0.50000000  0.00000000  1
  Si4+  Si9  1  0.00000000  0.00000000  0.00000000  1
  O2-  O10  1  0.16291200  0.91831400  0.19880400  1
  O2-  O11  1  0.91831400  0.83708800  0.80119600  1
  O2-  O12  1  0.08168600  0.16291200  0.80119600  1
  O2-  O13  1  0.83708800  0.08168600  0.19880400  1
  O2-  O14  1  0.33708800  0.41831400  0.80119600  1
  O2-  O15  1  0.66291200  0.58168600  0.80119600  1
  O2-  O16  1  0.41831400  0.66291200  0.19880400  1
  O2-  O17  1  0.58168600  0.33708800  0.19880400  1
  O2-  O18  1  0.85868600  0.64131400  0.29110100  1
  O2-  O19  1  0.64131400  0.14131400  0.70889900  1
  O2-  O20  1  0.35868600  0.85868600  0.70889900  1
  O2-  O21  1  0.14131400  0.35868600  0.29110100  1
  O2-  O22  1  0.00000000  0.50000000  0.81855900  1
  O2-  O23  1  0.50000000  0.00000000  0.18144100  1
