# generated using pymatgen
data_Y3SbO7
_symmetry_space_group_name_H-M   'P 1'
_cell_length_a   7.49367200
_cell_length_b   10.60441600
_cell_length_c   7.54845500
_cell_angle_alpha   90.00000000
_cell_angle_beta   90.00000000
_cell_angle_gamma   90.00000000
_symmetry_Int_Tables_number   1
_chemical_formula_structural   Y3SbO7
_chemical_formula_sum   'Y12 Sb4 O28'
_cell_volume   599.84564019
_cell_formula_units_Z   4
loop_
 _symmetry_equiv_pos_site_id
 _symmetry_equiv_pos_as_xyz
  1  'x, y, z'
loop_
 _atom_type_symbol
 _atom_type_oxidation_number
  Y3+  3.0
  Sb5+  5.0
  O2-  -2.0
loop_
 _atom_site_type_symbol
 _atom_site_label
 _atom_site_symmetry_multiplicity
 _atom_site_fract_x
 _atom_site_fract_y
 _atom_site_fract_z
 _atom_site_occupancy
  Y3+  Y0  1  0.50000000  0.00000000  0.00000000  1
  Y3+  Y1  1  0.50000000  0.00000000  0.50000000  1
  Y3+  Y2  1  0.73405400  0.73426800  0.75000000  1
  Y3+  Y3  1  0.26594600  0.26573200  0.25000000  1
  Y3+  Y4  1  0.26594600  0.73426800  0.75000000  1
  Y3+  Y5  1  0.73405400  0.26573200  0.25000000  1
  Y3+  Y6  1  0.00000000  0.50000000  0.00000000  1
  Y3+  Y7  1  0.00000000  0.50000000  0.50000000  1
  Y3+  Y8  1  0.23405400  0.23426800  0.75000000  1
  Y3+  Y9  1  0.76594600  0.76573200  0.25000000  1
  Y3+  Y10  1  0.76594600  0.23426800  0.75000000  1
  Y3+  Y11  1  0.23405400  0.76573200  0.25000000  1
  Sb5+  Sb12  1  0.00000000  0.00000000  0.00000000  1
  Sb5+  Sb13  1  0.00000000  0.00000000  0.50000000  1
  Sb5+  Sb14  1  0.50000000  0.50000000  0.00000000  1
  Sb5+  Sb15  1  0.50000000  0.50000000  0.50000000  1
  O2-  O16  1  0.50000000  0.86318500  0.75000000  1
  O2-  O17  1  0.50000000  0.13681500  0.25000000  1
  O2-  O18  1  0.50000000  0.13041200  0.75000000  1
  O2-  O19  1  0.50000000  0.86958800  0.25000000  1
  O2-  O20  1  0.50000000  0.56975800  0.75000000  1
  O2-  O21  1  0.50000000  0.43024200  0.25000000  1
  O2-  O22  1  0.19743450  0.12457650  0.02975800  1
  O2-  O23  1  0.80256550  0.87542350  0.52975800  1
  O2-  O24  1  0.80256550  0.12457650  0.47024200  1
  O2-  O25  1  0.19743450  0.87542350  0.97024200  1
  O2-  O26  1  0.80256550  0.87542350  0.97024200  1
  O2-  O27  1  0.19743450  0.12457650  0.47024200  1
  O2-  O28  1  0.19743450  0.87542350  0.52975800  1
  O2-  O29  1  0.80256550  0.12457650  0.02975800  1
  O2-  O30  1  0.00000000  0.36318500  0.75000000  1
  O2-  O31  1  0.00000000  0.63681500  0.25000000  1
  O2-  O32  1  0.00000000  0.63041200  0.75000000  1
  O2-  O33  1  0.00000000  0.36958800  0.25000000  1
  O2-  O34  1  0.00000000  0.06975800  0.75000000  1
  O2-  O35  1  0.00000000  0.93024200  0.25000000  1
  O2-  O36  1  0.69743450  0.62457650  0.02975800  1
  O2-  O37  1  0.30256550  0.37542350  0.52975800  1
  O2-  O38  1  0.30256550  0.62457650  0.47024200  1
  O2-  O39  1  0.69743450  0.37542350  0.97024200  1
  O2-  O40  1  0.30256550  0.37542350  0.97024200  1
  O2-  O41  1  0.69743450  0.62457650  0.47024200  1
  O2-  O42  1  0.69743450  0.37542350  0.52975800  1
  O2-  O43  1  0.30256550  0.62457650  0.02975800  1
