# generated using pymatgen
data_Y6WO12
_symmetry_space_group_name_H-M   'P 1'
_cell_length_a   9.87692360
_cell_length_b   9.87692360
_cell_length_c   9.41944468
_cell_angle_alpha   90.00000000
_cell_angle_beta   90.00000000
_cell_angle_gamma   120.00000000
_symmetry_Int_Tables_number   1
_chemical_formula_structural   Y6WO12
_chemical_formula_sum   'Y18 W3 O36'
_cell_volume   795.79154534
_cell_formula_units_Z   3
loop_
 _symmetry_equiv_pos_site_id
 _symmetry_equiv_pos_as_xyz
  1  'x, y, z'
loop_
 _atom_type_symbol
 _atom_type_oxidation_number
  Y3+  3.0
  W6+  6.0
  O2-  -2.0
loop_
 _atom_site_type_symbol
 _atom_site_label
 _atom_site_symmetry_multiplicity
 _atom_site_fract_x
 _atom_site_fract_y
 _atom_site_fract_z
 _atom_site_occupancy
  Y3+  Y0  1  0.78707667  0.04077033  0.35679433  1
  Y3+  Y1  1  0.04077033  0.25369367  0.64320567  1
  Y3+  Y2  1  0.74630633  0.78707667  0.64320567  1
  Y3+  Y3  1  0.21292333  0.95922967  0.64320567  1
  Y3+  Y4  1  0.95922967  0.74630633  0.35679433  1
  Y3+  Y5  1  0.25369367  0.21292333  0.35679433  1
  Y3+  Y6  1  0.45374333  0.37410367  0.69012767  1
  Y3+  Y7  1  0.70743700  0.58702700  0.97653900  1
  Y3+  Y8  1  0.41297300  0.12041000  0.97653900  1
  Y3+  Y9  1  0.87959000  0.29256300  0.97653900  1
  Y3+  Y10  1  0.62589633  0.07963967  0.69012767  1
  Y3+  Y11  1  0.92036033  0.54625667  0.69012767  1
  Y3+  Y12  1  0.12041000  0.70743700  0.02346100  1
  Y3+  Y13  1  0.37410367  0.92036033  0.30987233  1
  Y3+  Y14  1  0.07963967  0.45374333  0.30987233  1
  Y3+  Y15  1  0.54625667  0.62589633  0.30987233  1
  Y3+  Y16  1  0.29256300  0.41297300  0.02346100  1
  Y3+  Y17  1  0.58702700  0.87959000  0.02346100  1
  W6+  W18  1  0.00000000  0.00000000  0.00000000  1
  W6+  W19  1  0.66666667  0.33333333  0.33333333  1
  W6+  W20  1  0.33333333  0.66666667  0.66666667  1
  O2-  O21  1  0.03130933  0.22287867  0.39997767  1
  O2-  O22  1  0.77712133  0.80843067  0.39997767  1
  O2-  O23  1  0.19156933  0.96869067  0.39997767  1
  O2-  O24  1  0.96869067  0.77712133  0.60002233  1
  O2-  O25  1  0.22287867  0.19156933  0.60002233  1
  O2-  O26  1  0.80843067  0.03130933  0.60002233  1
  O2-  O27  1  0.48057033  0.63096767  0.55372467  1
  O2-  O28  1  0.84960267  0.48057033  0.44627533  1
  O2-  O29  1  0.63096767  0.15039733  0.44627533  1
  O2-  O30  1  0.51942967  0.36903233  0.44627533  1
  O2-  O31  1  0.15039733  0.51942967  0.55372467  1
  O2-  O32  1  0.36903233  0.84960267  0.55372467  1
  O2-  O33  1  0.69797600  0.55621200  0.73331100  1
  O2-  O34  1  0.44378800  0.14176400  0.73331100  1
  O2-  O35  1  0.85823600  0.30202400  0.73331100  1
  O2-  O36  1  0.63535733  0.11045467  0.93335567  1
  O2-  O37  1  0.88954533  0.52490267  0.93335567  1
  O2-  O38  1  0.47509733  0.36464267  0.93335567  1
  O2-  O39  1  0.14723700  0.96430100  0.88705800  1
  O2-  O40  1  0.51626933  0.81390367  0.77960867  1
  O2-  O41  1  0.29763433  0.48373067  0.77960867  1
  O2-  O42  1  0.18609633  0.70236567  0.77960867  1
  O2-  O43  1  0.81706400  0.85276300  0.88705800  1
  O2-  O44  1  0.03569900  0.18293600  0.88705800  1
  O2-  O45  1  0.36464267  0.88954533  0.06664433  1
  O2-  O46  1  0.11045467  0.47509733  0.06664433  1
  O2-  O47  1  0.52490267  0.63535733  0.06664433  1
  O2-  O48  1  0.30202400  0.44378800  0.26668900  1
  O2-  O49  1  0.55621200  0.85823600  0.26668900  1
  O2-  O50  1  0.14176400  0.69797600  0.26668900  1
  O2-  O51  1  0.81390367  0.29763433  0.22039133  1
  O2-  O52  1  0.18293600  0.14723700  0.11294200  1
  O2-  O53  1  0.96430100  0.81706400  0.11294200  1
  O2-  O54  1  0.85276300  0.03569900  0.11294200  1
  O2-  O55  1  0.48373067  0.18609633  0.22039133  1
  O2-  O56  1  0.70236567  0.51626933  0.22039133  1
