# generated using pymatgen
data_YAl3(BO3)4
_symmetry_space_group_name_H-M   'P 1'
_cell_length_a   9.36460507
_cell_length_b   9.36460507
_cell_length_c   7.31166088
_cell_angle_alpha   90.00000000
_cell_angle_beta   90.00000000
_cell_angle_gamma   120.00000000
_symmetry_Int_Tables_number   1
_chemical_formula_structural   YAl3(BO3)4
_chemical_formula_sum   'Y3 Al9 B12 O36'
_cell_volume   555.29735619
_cell_formula_units_Z   3
loop_
 _symmetry_equiv_pos_site_id
 _symmetry_equiv_pos_as_xyz
  1  'x, y, z'
loop_
 _atom_type_symbol
 _atom_type_oxidation_number
  Y3+  3.0
  Al3+  3.0
  B3+  3.0
  O2-  -2.0
loop_
 _atom_site_type_symbol
 _atom_site_label
 _atom_site_symmetry_multiplicity
 _atom_site_fract_x
 _atom_site_fract_y
 _atom_site_fract_z
 _atom_site_occupancy
  Y3+  Y0  1  0.00000000  0.00000000  0.00000000  1
  Y3+  Y1  1  0.66666667  0.33333333  0.33333333  1
  Y3+  Y2  1  0.33333333  0.66666667  0.66666667  1
  Al3+  Al3  1  0.11146267  0.33333333  0.33333333  1
  Al3+  Al4  1  0.66666667  0.77812933  0.33333333  1
  Al3+  Al5  1  0.22187067  0.88853733  0.33333333  1
  Al3+  Al6  1  0.77812933  0.66666667  0.66666667  1
  Al3+  Al7  1  0.33333333  0.11146267  0.66666667  1
  Al3+  Al8  1  0.88853733  0.22187067  0.66666667  1
  Al3+  Al9  1  0.44479600  0.00000000  0.00000000  1
  Al3+  Al10  1  0.00000000  0.44479600  0.00000000  1
  Al3+  Al11  1  0.55520400  0.55520400  0.00000000  1
  B3+  B12  1  0.55652300  0.00000000  0.50000000  1
  B3+  B13  1  0.00000000  0.55652300  0.50000000  1
  B3+  B14  1  0.44347700  0.44347700  0.50000000  1
  B3+  B15  1  0.00000000  0.00000000  0.50000000  1
  B3+  B16  1  0.22318967  0.33333333  0.83333333  1
  B3+  B17  1  0.66666667  0.88985633  0.83333333  1
  B3+  B18  1  0.11014367  0.77681033  0.83333333  1
  B3+  B19  1  0.66666667  0.33333333  0.83333333  1
  B3+  B20  1  0.88985633  0.66666667  0.16666667  1
  B3+  B21  1  0.33333333  0.22318967  0.16666667  1
  B3+  B22  1  0.77681033  0.11014367  0.16666667  1
  B3+  B23  1  0.33333333  0.66666667  0.16666667  1
  O2-  O24  1  0.69908133  0.14926167  0.52157367  1
  O2-  O25  1  0.30091867  0.45018033  0.47842633  1
  O2-  O26  1  0.14926167  0.69908133  0.47842633  1
  O2-  O27  1  0.54981967  0.85073833  0.47842633  1
  O2-  O28  1  0.85136300  0.85136300  0.50000000  1
  O2-  O29  1  0.00000000  0.14863700  0.50000000  1
  O2-  O30  1  0.14863700  0.00000000  0.50000000  1
  O2-  O31  1  0.59179200  0.59179200  0.50000000  1
  O2-  O32  1  0.00000000  0.40820800  0.50000000  1
  O2-  O33  1  0.40820800  0.00000000  0.50000000  1
  O2-  O34  1  0.45018033  0.30091867  0.52157367  1
  O2-  O35  1  0.85073833  0.54981967  0.52157367  1
  O2-  O36  1  0.36574800  0.48259500  0.85490700  1
  O2-  O37  1  0.96758533  0.78351367  0.81175967  1
  O2-  O38  1  0.81592833  0.03241467  0.81175967  1
  O2-  O39  1  0.21648633  0.18407167  0.81175967  1
  O2-  O40  1  0.51802967  0.18469633  0.83333333  1
  O2-  O41  1  0.66666667  0.48197033  0.83333333  1
  O2-  O42  1  0.81530367  0.33333333  0.83333333  1
  O2-  O43  1  0.25845867  0.92512533  0.83333333  1
  O2-  O44  1  0.66666667  0.74154133  0.83333333  1
  O2-  O45  1  0.07487467  0.33333333  0.83333333  1
  O2-  O46  1  0.11684700  0.63425200  0.85490700  1
  O2-  O47  1  0.51740500  0.88315300  0.85490700  1
  O2-  O48  1  0.03241467  0.81592833  0.18824033  1
  O2-  O49  1  0.63425200  0.11684700  0.14509300  1
  O2-  O50  1  0.48259500  0.36574800  0.14509300  1
  O2-  O51  1  0.88315300  0.51740500  0.14509300  1
  O2-  O52  1  0.18469633  0.51802967  0.16666667  1
  O2-  O53  1  0.33333333  0.81530367  0.16666667  1
  O2-  O54  1  0.48197033  0.66666667  0.16666667  1
  O2-  O55  1  0.92512533  0.25845867  0.16666667  1
  O2-  O56  1  0.33333333  0.07487467  0.16666667  1
  O2-  O57  1  0.74154133  0.66666667  0.16666667  1
  O2-  O58  1  0.78351367  0.96758533  0.18824033  1
  O2-  O59  1  0.18407167  0.21648633  0.18824033  1
