# generated using pymatgen
data_YAsO4
_symmetry_space_group_name_H-M   'P 1'
_cell_length_a   7.17000400
_cell_length_b   7.17000400
_cell_length_c   6.37234200
_cell_angle_alpha   90.00000000
_cell_angle_beta   90.00000000
_cell_angle_gamma   90.00000000
_symmetry_Int_Tables_number   1
_chemical_formula_structural   YAsO4
_chemical_formula_sum   'Y4 As4 O16'
_cell_volume   327.59545816
_cell_formula_units_Z   4
loop_
 _symmetry_equiv_pos_site_id
 _symmetry_equiv_pos_as_xyz
  1  'x, y, z'
loop_
 _atom_type_symbol
 _atom_type_oxidation_number
  Y3+  3.0
  As5+  5.0
  O2-  -2.0
loop_
 _atom_site_type_symbol
 _atom_site_label
 _atom_site_symmetry_multiplicity
 _atom_site_fract_x
 _atom_site_fract_y
 _atom_site_fract_z
 _atom_site_occupancy
  Y3+  Y0  1  0.00000000  0.00000000  0.50000000  1
  Y3+  Y1  1  0.50000000  0.00000000  0.75000000  1
  Y3+  Y2  1  0.50000000  0.50000000  0.00000000  1
  Y3+  Y3  1  0.00000000  0.50000000  0.25000000  1
  As5+  As4  1  0.50000000  0.50000000  0.50000000  1
  As5+  As5  1  0.50000000  0.00000000  0.25000000  1
  As5+  As6  1  0.00000000  0.00000000  0.00000000  1
  As5+  As7  1  0.00000000  0.50000000  0.75000000  1
  O2-  O8  1  0.00000000  0.68104550  0.57296550  1
  O2-  O9  1  0.81895450  0.00000000  0.82296550  1
  O2-  O10  1  0.68104550  0.50000000  0.32296550  1
  O2-  O11  1  0.00000000  0.31895450  0.57296550  1
  O2-  O12  1  0.68104550  0.00000000  0.42703450  1
  O2-  O13  1  0.50000000  0.31895450  0.67703450  1
  O2-  O14  1  0.00000000  0.18104550  0.17703450  1
  O2-  O15  1  0.31895450  0.00000000  0.42703450  1
  O2-  O16  1  0.50000000  0.18104550  0.07296550  1
  O2-  O17  1  0.31895450  0.50000000  0.32296550  1
  O2-  O18  1  0.18104550  0.00000000  0.82296550  1
  O2-  O19  1  0.50000000  0.81895450  0.07296550  1
  O2-  O20  1  0.18104550  0.50000000  0.92703450  1
  O2-  O21  1  0.00000000  0.81895450  0.17703450  1
  O2-  O22  1  0.50000000  0.68104550  0.67703450  1
  O2-  O23  1  0.81895450  0.50000000  0.92703450  1
