# generated using pymatgen
data_YBO3
_symmetry_space_group_name_H-M   'P 1'
_cell_length_a   6.59647400
_cell_length_b   11.44444400
_cell_length_c   8.90402300
_cell_angle_alpha   90.00000000
_cell_angle_beta   90.00000000
_cell_angle_gamma   90.00000000
_symmetry_Int_Tables_number   1
_chemical_formula_structural   YBO3
_chemical_formula_sum   'Y12 B12 O36'
_cell_volume   672.19120613
_cell_formula_units_Z   12
loop_
 _symmetry_equiv_pos_site_id
 _symmetry_equiv_pos_as_xyz
  1  'x, y, z'
loop_
 _atom_type_symbol
 _atom_type_oxidation_number
  Y3+  3.0
  B3+  3.0
  O2-  -2.0
loop_
 _atom_site_type_symbol
 _atom_site_label
 _atom_site_symmetry_multiplicity
 _atom_site_fract_x
 _atom_site_fract_y
 _atom_site_fract_z
 _atom_site_occupancy
  Y3+  Y0  1  0.50000000  0.17070500  0.50000000  1
  Y3+  Y1  1  0.50000000  0.17070500  0.00000000  1
  Y3+  Y2  1  0.00000000  0.00000000  0.50000000  1
  Y3+  Y3  1  0.00000000  0.00000000  0.00000000  1
  Y3+  Y4  1  0.00000000  0.32929500  0.50000000  1
  Y3+  Y5  1  0.00000000  0.32929500  0.00000000  1
  Y3+  Y6  1  0.00000000  0.67070500  0.50000000  1
  Y3+  Y7  1  0.00000000  0.67070500  0.00000000  1
  Y3+  Y8  1  0.50000000  0.50000000  0.50000000  1
  Y3+  Y9  1  0.50000000  0.50000000  0.00000000  1
  Y3+  Y10  1  0.50000000  0.82929500  0.50000000  1
  Y3+  Y11  1  0.50000000  0.82929500  0.00000000  1
  B3+  B12  1  0.28596650  0.37985250  0.75000000  1
  B3+  B13  1  0.78596650  0.12014750  0.75000000  1
  B3+  B14  1  0.42437100  0.00000000  0.75000000  1
  B3+  B15  1  0.57562900  0.00000000  0.25000000  1
  B3+  B16  1  0.21403350  0.12014750  0.25000000  1
  B3+  B17  1  0.71403350  0.37985250  0.25000000  1
  B3+  B18  1  0.78596650  0.87985250  0.75000000  1
  B3+  B19  1  0.28596650  0.62014750  0.75000000  1
  B3+  B20  1  0.92437100  0.50000000  0.75000000  1
  B3+  B21  1  0.07562900  0.50000000  0.25000000  1
  B3+  B22  1  0.71403350  0.62014750  0.25000000  1
  B3+  B23  1  0.21403350  0.87985250  0.25000000  1
  O2-  O24  1  0.44308800  0.10856200  0.25000000  1
  O2-  O25  1  0.94308800  0.39143800  0.25000000  1
  O2-  O26  1  0.11800800  0.00000000  0.25000000  1
  O2-  O27  1  0.88199200  0.00000000  0.75000000  1
  O2-  O28  1  0.05691200  0.39143800  0.75000000  1
  O2-  O29  1  0.55691200  0.10856200  0.75000000  1
  O2-  O30  1  0.65882750  0.32529450  0.10849000  1
  O2-  O31  1  0.65882750  0.32529450  0.39151000  1
  O2-  O32  1  0.15882750  0.17470550  0.10849000  1
  O2-  O33  1  0.15882750  0.17470550  0.39151000  1
  O2-  O34  1  0.68393400  0.00000000  0.10687600  1
  O2-  O35  1  0.68393400  0.00000000  0.39312400  1
  O2-  O36  1  0.31606600  0.00000000  0.60687600  1
  O2-  O37  1  0.31606600  0.00000000  0.89312400  1
  O2-  O38  1  0.84117250  0.17470550  0.60849000  1
  O2-  O39  1  0.84117250  0.17470550  0.89151000  1
  O2-  O40  1  0.34117250  0.32529450  0.60849000  1
  O2-  O41  1  0.34117250  0.32529450  0.89151000  1
  O2-  O42  1  0.94308800  0.60856200  0.25000000  1
  O2-  O43  1  0.44308800  0.89143800  0.25000000  1
  O2-  O44  1  0.61800800  0.50000000  0.25000000  1
  O2-  O45  1  0.38199200  0.50000000  0.75000000  1
  O2-  O46  1  0.55691200  0.89143800  0.75000000  1
  O2-  O47  1  0.05691200  0.60856200  0.75000000  1
  O2-  O48  1  0.15882750  0.82529450  0.10849000  1
  O2-  O49  1  0.15882750  0.82529450  0.39151000  1
  O2-  O50  1  0.65882750  0.67470550  0.10849000  1
  O2-  O51  1  0.65882750  0.67470550  0.39151000  1
  O2-  O52  1  0.18393400  0.50000000  0.10687600  1
  O2-  O53  1  0.18393400  0.50000000  0.39312400  1
  O2-  O54  1  0.81606600  0.50000000  0.60687600  1
  O2-  O55  1  0.81606600  0.50000000  0.89312400  1
  O2-  O56  1  0.34117250  0.67470550  0.60849000  1
  O2-  O57  1  0.34117250  0.67470550  0.89151000  1
  O2-  O58  1  0.84117250  0.82529450  0.60849000  1
  O2-  O59  1  0.84117250  0.82529450  0.89151000  1
