# generated using pymatgen
data_YNbO4
_symmetry_space_group_name_H-M   'P 1'
_cell_length_a   7.18073600
_cell_length_b   11.14784600
_cell_length_c   5.16017204
_cell_angle_alpha   90.00000000
_cell_angle_beta   131.97130374
_cell_angle_gamma   90.00000000
_symmetry_Int_Tables_number   1
_chemical_formula_structural   YNbO4
_chemical_formula_sum   'Y4 Nb4 O16'
_cell_volume   307.10954324
_cell_formula_units_Z   4
loop_
 _symmetry_equiv_pos_site_id
 _symmetry_equiv_pos_as_xyz
  1  'x, y, z'
loop_
 _atom_type_symbol
 _atom_type_oxidation_number
  Y3+  3.0
  Nb5+  5.0
  O2-  -2.0
loop_
 _atom_site_type_symbol
 _atom_site_label
 _atom_site_symmetry_multiplicity
 _atom_site_fract_x
 _atom_site_fract_y
 _atom_site_fract_z
 _atom_site_occupancy
  Y3+  Y0  1  0.00000000  0.37197500  0.25000000  1
  Y3+  Y1  1  0.50000000  0.12802500  0.75000000  1
  Y3+  Y2  1  0.50000000  0.87197500  0.25000000  1
  Y3+  Y3  1  0.00000000  0.62802500  0.75000000  1
  Nb5+  Nb4  1  0.50000000  0.39122900  0.25000000  1
  Nb5+  Nb5  1  0.00000000  0.10877100  0.75000000  1
  Nb5+  Nb6  1  0.00000000  0.89122900  0.25000000  1
  Nb5+  Nb7  1  0.50000000  0.60877100  0.75000000  1
  O2-  O8  1  0.24987750  0.03268950  0.20139800  1
  O2-  O9  1  0.75012250  0.03268950  0.29860200  1
  O2-  O10  1  0.25012250  0.46731050  0.79860200  1
  O2-  O11  1  0.74987750  0.46731050  0.70139800  1
  O2-  O12  1  0.16027050  0.21030650  0.65963800  1
  O2-  O13  1  0.83972950  0.21030650  0.84036200  1
  O2-  O14  1  0.33972950  0.28969350  0.34036200  1
  O2-  O15  1  0.66027050  0.28969350  0.15963800  1
  O2-  O16  1  0.74987750  0.53268950  0.20139800  1
  O2-  O17  1  0.25012250  0.53268950  0.29860200  1
  O2-  O18  1  0.75012250  0.96731050  0.79860200  1
  O2-  O19  1  0.24987750  0.96731050  0.70139800  1
  O2-  O20  1  0.66027050  0.71030650  0.65963800  1
  O2-  O21  1  0.33972950  0.71030650  0.84036200  1
  O2-  O22  1  0.83972950  0.78969350  0.34036200  1
  O2-  O23  1  0.16027050  0.78969350  0.15963800  1
