# generated using pymatgen
data_YTl(WO4)2
_symmetry_space_group_name_H-M   'P 1'
_cell_length_a   10.96040000
_cell_length_b   10.67168600
_cell_length_c   7.49091614
_cell_angle_alpha   90.00000000
_cell_angle_beta   130.30921719
_cell_angle_gamma   90.00000000
_symmetry_Int_Tables_number   1
_chemical_formula_structural   YTl(WO4)2
_chemical_formula_sum   'Y4 Tl4 W8 O32'
_cell_volume   668.14516522
_cell_formula_units_Z   4
loop_
 _symmetry_equiv_pos_site_id
 _symmetry_equiv_pos_as_xyz
  1  'x, y, z'
loop_
 _atom_type_symbol
 _atom_type_oxidation_number
  Y3+  3.0
  Tl+  1.0
  W6+  6.0
  O2-  -2.0
loop_
 _atom_site_type_symbol
 _atom_site_label
 _atom_site_symmetry_multiplicity
 _atom_site_fract_x
 _atom_site_fract_y
 _atom_site_fract_z
 _atom_site_occupancy
  Y3+  Y0  1  0.00000000  0.22400600  0.25000000  1
  Y3+  Y1  1  0.00000000  0.77599400  0.75000000  1
  Y3+  Y2  1  0.50000000  0.72400600  0.25000000  1
  Y3+  Y3  1  0.50000000  0.27599400  0.75000000  1
  Tl+  Tl4  1  0.00000000  0.79405600  0.25000000  1
  Tl+  Tl5  1  0.00000000  0.20594400  0.75000000  1
  Tl+  Tl6  1  0.50000000  0.29405600  0.25000000  1
  Tl+  Tl7  1  0.50000000  0.70594400  0.75000000  1
  W6+  W8  1  0.19537550  0.49470650  0.21794800  1
  W6+  W9  1  0.80462450  0.50529350  0.78205200  1
  W6+  W10  1  0.80462450  0.49470650  0.28205200  1
  W6+  W11  1  0.19537550  0.50529350  0.71794800  1
  W6+  W12  1  0.69537550  0.99470650  0.21794800  1
  W6+  W13  1  0.30462450  0.00529350  0.78205200  1
  W6+  W14  1  0.30462450  0.99470650  0.28205200  1
  W6+  W15  1  0.69537550  0.00529350  0.71794800  1
  O2-  O16  1  0.18708950  0.56662350  0.44051700  1
  O2-  O17  1  0.81291050  0.43337650  0.55948300  1
  O2-  O18  1  0.81291050  0.56662350  0.05948300  1
  O2-  O19  1  0.18708950  0.43337650  0.94051700  1
  O2-  O20  1  0.71839150  0.34365150  0.12442100  1
  O2-  O21  1  0.28160850  0.65634850  0.87557900  1
  O2-  O22  1  0.28160850  0.34365150  0.37557900  1
  O2-  O23  1  0.71839150  0.65634850  0.62442100  1
  O2-  O24  1  0.98023100  0.39009900  0.03324700  1
  O2-  O25  1  0.01976900  0.60990100  0.96675300  1
  O2-  O26  1  0.01976900  0.39009900  0.46675300  1
  O2-  O27  1  0.98023100  0.60990100  0.53324700  1
  O2-  O28  1  0.36903800  0.58621000  0.30999300  1
  O2-  O29  1  0.63096200  0.41379000  0.69000700  1
  O2-  O30  1  0.63096200  0.58621000  0.19000700  1
  O2-  O31  1  0.36903800  0.41379000  0.80999300  1
  O2-  O32  1  0.68708950  0.06662350  0.44051700  1
  O2-  O33  1  0.31291050  0.93337650  0.55948300  1
  O2-  O34  1  0.31291050  0.06662350  0.05948300  1
  O2-  O35  1  0.68708950  0.93337650  0.94051700  1
  O2-  O36  1  0.21839150  0.84365150  0.12442100  1
  O2-  O37  1  0.78160850  0.15634850  0.87557900  1
  O2-  O38  1  0.78160850  0.84365150  0.37557900  1
  O2-  O39  1  0.21839150  0.15634850  0.62442100  1
  O2-  O40  1  0.48023100  0.89009900  0.03324700  1
  O2-  O41  1  0.51976900  0.10990100  0.96675300  1
  O2-  O42  1  0.51976900  0.89009900  0.46675300  1
  O2-  O43  1  0.48023100  0.10990100  0.53324700  1
  O2-  O44  1  0.86903800  0.08621000  0.30999300  1
  O2-  O45  1  0.13096200  0.91379000  0.69000700  1
  O2-  O46  1  0.13096200  0.08621000  0.19000700  1
  O2-  O47  1  0.86903800  0.91379000  0.80999300  1
