# generated using pymatgen
data_YZnAsO
_symmetry_space_group_name_H-M   'P 1'
_cell_length_a   3.97471800
_cell_length_b   3.97471800
_cell_length_c   8.96306600
_cell_angle_alpha   90.00000000
_cell_angle_beta   90.00000000
_cell_angle_gamma   90.00000000
_symmetry_Int_Tables_number   1
_chemical_formula_structural   YZnAsO
_chemical_formula_sum   'Y2 Zn2 As2 O2'
_cell_volume   141.60195113
_cell_formula_units_Z   2
loop_
 _symmetry_equiv_pos_site_id
 _symmetry_equiv_pos_as_xyz
  1  'x, y, z'
loop_
 _atom_type_symbol
 _atom_type_oxidation_number
  Y3+  3.0
  Zn2+  2.0
  As3-  -3.0
  O2-  -2.0
loop_
 _atom_site_type_symbol
 _atom_site_label
 _atom_site_symmetry_multiplicity
 _atom_site_fract_x
 _atom_site_fract_y
 _atom_site_fract_z
 _atom_site_occupancy
  Y3+  Y0  1  0.00000000  0.50000000  0.87826100  1
  Y3+  Y1  1  0.50000000  0.00000000  0.12173900  1
  Zn2+  Zn2  1  0.00000000  0.00000000  0.50000000  1
  Zn2+  Zn3  1  0.50000000  0.50000000  0.50000000  1
  As3-  As4  1  0.00000000  0.50000000  0.31777000  1
  As3-  As5  1  0.50000000  0.00000000  0.68223000  1
  O2-  O6  1  0.00000000  0.00000000  0.00000000  1
  O2-  O7  1  0.50000000  0.50000000  0.00000000  1
