# generated using pymatgen
data_Zn(SbO3)2
_symmetry_space_group_name_H-M   'P 1'
_cell_length_a   4.75115800
_cell_length_b   4.75115800
_cell_length_c   9.42056300
_cell_angle_alpha   90.00000000
_cell_angle_beta   90.00000000
_cell_angle_gamma   90.00000000
_symmetry_Int_Tables_number   1
_chemical_formula_structural   Zn(SbO3)2
_chemical_formula_sum   'Zn2 Sb4 O12'
_cell_volume   212.65510093
_cell_formula_units_Z   2
loop_
 _symmetry_equiv_pos_site_id
 _symmetry_equiv_pos_as_xyz
  1  'x, y, z'
loop_
 _atom_type_symbol
 _atom_type_oxidation_number
  Zn2+  2.0
  Sb5+  5.0
  O2-  -2.0
loop_
 _atom_site_type_symbol
 _atom_site_label
 _atom_site_symmetry_multiplicity
 _atom_site_fract_x
 _atom_site_fract_y
 _atom_site_fract_z
 _atom_site_occupancy
  Zn2+  Zn0  1  0.00000000  0.00000000  0.00000000  1
  Zn2+  Zn1  1  0.50000000  0.50000000  0.50000000  1
  Sb5+  Sb2  1  0.50000000  0.50000000  0.83218200  1
  Sb5+  Sb3  1  0.00000000  0.00000000  0.33218200  1
  Sb5+  Sb4  1  0.50000000  0.50000000  0.16781800  1
  Sb5+  Sb5  1  0.00000000  0.00000000  0.66781800  1
  O2-  O6  1  0.69857800  0.69857800  0.67291300  1
  O2-  O7  1  0.30142200  0.30142200  0.67291300  1
  O2-  O8  1  0.69857800  0.69857800  0.32708700  1
  O2-  O9  1  0.19857800  0.80142200  0.17291300  1
  O2-  O10  1  0.80142200  0.19857800  0.17291300  1
  O2-  O11  1  0.80142200  0.19857800  0.82708700  1
  O2-  O12  1  0.31163800  0.31163800  0.00000000  1
  O2-  O13  1  0.18836200  0.81163800  0.50000000  1
  O2-  O14  1  0.81163800  0.18836200  0.50000000  1
  O2-  O15  1  0.68836200  0.68836200  0.00000000  1
  O2-  O16  1  0.30142200  0.30142200  0.32708700  1
  O2-  O17  1  0.19857800  0.80142200  0.82708700  1
