# generated using pymatgen
data_Zn2PtO4
_symmetry_space_group_name_H-M   'P 1'
_cell_length_a   5.98308000
_cell_length_b   6.22189200
_cell_length_c   8.81699800
_cell_angle_alpha   90.00000000
_cell_angle_beta   90.00000000
_cell_angle_gamma   90.00000000
_symmetry_Int_Tables_number   1
_chemical_formula_structural   Zn2PtO4
_chemical_formula_sum   'Zn8 Pt4 O16'
_cell_volume   328.22225164
_cell_formula_units_Z   4
loop_
 _symmetry_equiv_pos_site_id
 _symmetry_equiv_pos_as_xyz
  1  'x, y, z'
loop_
 _atom_type_symbol
 _atom_type_oxidation_number
  Zn2+  2.0
  Pt4+  4.0
  O2-  -2.0
loop_
 _atom_site_type_symbol
 _atom_site_label
 _atom_site_symmetry_multiplicity
 _atom_site_fract_x
 _atom_site_fract_y
 _atom_site_fract_z
 _atom_site_occupancy
  Zn2+  Zn0  1  0.00000000  0.25000000  0.84969300  1
  Zn2+  Zn1  1  0.00000000  0.75000000  0.15030700  1
  Zn2+  Zn2  1  0.75000000  0.25000000  0.25000000  1
  Zn2+  Zn3  1  0.25000000  0.25000000  0.25000000  1
  Zn2+  Zn4  1  0.50000000  0.75000000  0.34969300  1
  Zn2+  Zn5  1  0.50000000  0.25000000  0.65030700  1
  Zn2+  Zn6  1  0.25000000  0.75000000  0.75000000  1
  Zn2+  Zn7  1  0.75000000  0.75000000  0.75000000  1
  Pt4+  Pt8  1  0.50000000  0.50000000  0.00000000  1
  Pt4+  Pt9  1  0.50000000  0.00000000  0.00000000  1
  Pt4+  Pt10  1  0.00000000  0.00000000  0.50000000  1
  Pt4+  Pt11  1  0.00000000  0.50000000  0.50000000  1
  O2-  O12  1  0.00000000  0.01917150  0.26764950  1
  O2-  O13  1  0.50000000  0.98082850  0.76764950  1
  O2-  O14  1  0.27410400  0.75000000  0.00103300  1
  O2-  O15  1  0.72589600  0.75000000  0.00103300  1
  O2-  O16  1  0.27410400  0.25000000  0.99896700  1
  O2-  O17  1  0.50000000  0.01917150  0.23235050  1
  O2-  O18  1  0.72589600  0.25000000  0.99896700  1
  O2-  O19  1  0.00000000  0.98082850  0.73235050  1
  O2-  O20  1  0.50000000  0.51917150  0.76764950  1
  O2-  O21  1  0.00000000  0.48082850  0.26764950  1
  O2-  O22  1  0.77410400  0.25000000  0.50103300  1
  O2-  O23  1  0.22589600  0.25000000  0.50103300  1
  O2-  O24  1  0.77410400  0.75000000  0.49896700  1
  O2-  O25  1  0.00000000  0.51917150  0.73235050  1
  O2-  O26  1  0.22589600  0.75000000  0.49896700  1
  O2-  O27  1  0.50000000  0.48082850  0.23235050  1
