# generated using pymatgen
data_Zn4B6O13
_symmetry_space_group_name_H-M   'P 1'
_cell_length_a   7.55034400
_cell_length_b   7.55034400
_cell_length_c   7.55034400
_cell_angle_alpha   90.00000000
_cell_angle_beta   90.00000000
_cell_angle_gamma   90.00000000
_symmetry_Int_Tables_number   1
_chemical_formula_structural   Zn4B6O13
_chemical_formula_sum   'Zn8 B12 O26'
_cell_volume   430.42770426
_cell_formula_units_Z   2
loop_
 _symmetry_equiv_pos_site_id
 _symmetry_equiv_pos_as_xyz
  1  'x, y, z'
loop_
 _atom_type_symbol
 _atom_type_oxidation_number
  Zn2+  2.0
  B3+  3.0
  O2-  -2.0
loop_
 _atom_site_type_symbol
 _atom_site_label
 _atom_site_symmetry_multiplicity
 _atom_site_fract_x
 _atom_site_fract_y
 _atom_site_fract_z
 _atom_site_occupancy
  Zn2+  Zn0  1  0.34655100  0.34655100  0.34655100  1
  Zn2+  Zn1  1  0.15344900  0.84655100  0.15344900  1
  Zn2+  Zn2  1  0.84655100  0.15344900  0.15344900  1
  Zn2+  Zn3  1  0.15344900  0.15344900  0.84655100  1
  Zn2+  Zn4  1  0.84655100  0.84655100  0.84655100  1
  Zn2+  Zn5  1  0.65344900  0.34655100  0.65344900  1
  Zn2+  Zn6  1  0.34655100  0.65344900  0.65344900  1
  Zn2+  Zn7  1  0.65344900  0.65344900  0.34655100  1
  B3+  B8  1  0.50000000  0.25000000  0.00000000  1
  B3+  B9  1  0.00000000  0.50000000  0.25000000  1
  B3+  B10  1  0.50000000  0.00000000  0.25000000  1
  B3+  B11  1  0.25000000  0.00000000  0.50000000  1
  B3+  B12  1  0.25000000  0.50000000  0.00000000  1
  B3+  B13  1  0.00000000  0.25000000  0.50000000  1
  B3+  B14  1  0.00000000  0.75000000  0.50000000  1
  B3+  B15  1  0.50000000  0.00000000  0.75000000  1
  B3+  B16  1  0.00000000  0.50000000  0.75000000  1
  B3+  B17  1  0.75000000  0.50000000  0.00000000  1
  B3+  B18  1  0.75000000  0.00000000  0.50000000  1
  B3+  B19  1  0.50000000  0.75000000  0.00000000  1
  O2-  O20  1  0.14047000  0.14047000  0.58317300  1
  O2-  O21  1  0.14047000  0.85953000  0.41682700  1
  O2-  O22  1  0.35953000  0.08317300  0.35953000  1
  O2-  O23  1  0.85953000  0.14047000  0.41682700  1
  O2-  O24  1  0.41682700  0.85953000  0.14047000  1
  O2-  O25  1  0.08317300  0.35953000  0.35953000  1
  O2-  O26  1  0.58317300  0.14047000  0.14047000  1
  O2-  O27  1  0.14047000  0.58317300  0.14047000  1
  O2-  O28  1  0.14047000  0.41682700  0.85953000  1
  O2-  O29  1  0.41682700  0.14047000  0.85953000  1
  O2-  O30  1  0.35953000  0.35953000  0.08317300  1
  O2-  O31  1  0.85953000  0.41682700  0.14047000  1
  O2-  O32  1  0.00000000  0.00000000  0.00000000  1
  O2-  O33  1  0.64047000  0.64047000  0.08317300  1
  O2-  O34  1  0.64047000  0.35953000  0.91682700  1
  O2-  O35  1  0.85953000  0.58317300  0.85953000  1
  O2-  O36  1  0.35953000  0.64047000  0.91682700  1
  O2-  O37  1  0.91682700  0.35953000  0.64047000  1
  O2-  O38  1  0.58317300  0.85953000  0.85953000  1
  O2-  O39  1  0.08317300  0.64047000  0.64047000  1
  O2-  O40  1  0.64047000  0.08317300  0.64047000  1
  O2-  O41  1  0.64047000  0.91682700  0.35953000  1
  O2-  O42  1  0.91682700  0.64047000  0.35953000  1
  O2-  O43  1  0.85953000  0.85953000  0.58317300  1
  O2-  O44  1  0.35953000  0.91682700  0.64047000  1
  O2-  O45  1  0.50000000  0.50000000  0.50000000  1
