# generated using pymatgen
data_ZnWO4
_symmetry_space_group_name_H-M   'P 1'
_cell_length_a   4.75913000
_cell_length_b   5.85530200
_cell_length_c   5.01788344
_cell_angle_alpha   90.00000000
_cell_angle_beta   91.81138369
_cell_angle_gamma   90.00000000
_symmetry_Int_Tables_number   1
_chemical_formula_structural   ZnWO4
_chemical_formula_sum   'Zn2 W2 O8'
_cell_volume   139.75918686
_cell_formula_units_Z   2
loop_
 _symmetry_equiv_pos_site_id
 _symmetry_equiv_pos_as_xyz
  1  'x, y, z'
loop_
 _atom_type_symbol
 _atom_type_oxidation_number
  Zn2+  2.0
  W6+  6.0
  O2-  -2.0
loop_
 _atom_site_type_symbol
 _atom_site_label
 _atom_site_symmetry_multiplicity
 _atom_site_fract_x
 _atom_site_fract_y
 _atom_site_fract_z
 _atom_site_occupancy
  Zn2+  Zn0  1  0.50000000  0.32200000  0.25000000  1
  Zn2+  Zn1  1  0.50000000  0.67800000  0.75000000  1
  W6+  W2  1  0.00000000  0.82561700  0.25000000  1
  W6+  W3  1  0.00000000  0.17438300  0.75000000  1
  O2-  O4  1  0.21495100  0.89349500  0.93464300  1
  O2-  O5  1  0.78504900  0.89349500  0.56535700  1
  O2-  O6  1  0.78504900  0.10650500  0.06535700  1
  O2-  O7  1  0.21495100  0.10650500  0.43464300  1
  O2-  O8  1  0.25784200  0.62959900  0.40506400  1
  O2-  O9  1  0.74215800  0.62959900  0.09493600  1
  O2-  O10  1  0.74215800  0.37040100  0.59493600  1
  O2-  O11  1  0.25784200  0.37040100  0.90506400  1
