# generated using pymatgen
data_Zr(MoO4)2
_symmetry_space_group_name_H-M   'P 1'
_cell_length_a   5.95986569
_cell_length_b   5.95986569
_cell_length_c   6.58136000
_cell_angle_alpha   90.00000000
_cell_angle_beta   90.00000000
_cell_angle_gamma   120.00000000
_symmetry_Int_Tables_number   1
_chemical_formula_structural   Zr(MoO4)2
_chemical_formula_sum   'Zr1 Mo2 O8'
_cell_volume   202.45067275
_cell_formula_units_Z   1
loop_
 _symmetry_equiv_pos_site_id
 _symmetry_equiv_pos_as_xyz
  1  'x, y, z'
loop_
 _atom_type_symbol
 _atom_type_oxidation_number
  Zr4+  4.0
  Mo6+  6.0
  O2-  -2.0
loop_
 _atom_site_type_symbol
 _atom_site_label
 _atom_site_symmetry_multiplicity
 _atom_site_fract_x
 _atom_site_fract_y
 _atom_site_fract_z
 _atom_site_occupancy
  Zr4+  Zr0  1  0.00000000  0.00000000  0.00000000  1
  Mo6+  Mo1  1  0.33333333  0.66666667  0.27578300  1
  Mo6+  Mo2  1  0.66666667  0.33333333  0.72421700  1
  O2-  O3  1  0.66666667  0.33333333  0.46188400  1
  O2-  O4  1  0.33333333  0.66666667  0.53811600  1
  O2-  O5  1  0.83272900  0.16727100  0.81715100  1
  O2-  O6  1  0.16727100  0.83272900  0.18284900  1
  O2-  O7  1  0.16727100  0.33454200  0.18284900  1
  O2-  O8  1  0.66545800  0.83272900  0.18284900  1
  O2-  O9  1  0.33454200  0.16727100  0.81715100  1
  O2-  O10  1  0.83272900  0.66545800  0.81715100  1
