# generated using pymatgen
data_ZrGeO4
_symmetry_space_group_name_H-M   'P 1'
_cell_length_a   4.92622600
_cell_length_b   4.92622600
_cell_length_c   10.73232400
_cell_angle_alpha   90.00000000
_cell_angle_beta   90.00000000
_cell_angle_gamma   90.00000000
_symmetry_Int_Tables_number   1
_chemical_formula_structural   ZrGeO4
_chemical_formula_sum   'Zr4 Ge4 O16'
_cell_volume   260.44884707
_cell_formula_units_Z   4
loop_
 _symmetry_equiv_pos_site_id
 _symmetry_equiv_pos_as_xyz
  1  'x, y, z'
loop_
 _atom_type_symbol
 _atom_type_oxidation_number
  Zr4+  4.0
  Ge4+  4.0
  O2-  -2.0
loop_
 _atom_site_type_symbol
 _atom_site_label
 _atom_site_symmetry_multiplicity
 _atom_site_fract_x
 _atom_site_fract_y
 _atom_site_fract_z
 _atom_site_occupancy
  Zr4+  Zr0  1  0.50000000  0.00000000  0.25000000  1
  Zr4+  Zr1  1  0.50000000  0.50000000  0.00000000  1
  Zr4+  Zr2  1  0.00000000  0.50000000  0.75000000  1
  Zr4+  Zr3  1  0.00000000  0.00000000  0.50000000  1
  Ge4+  Ge4  1  0.00000000  0.50000000  0.25000000  1
  Ge4+  Ge5  1  0.00000000  0.00000000  0.00000000  1
  Ge4+  Ge6  1  0.50000000  0.00000000  0.75000000  1
  Ge4+  Ge7  1  0.50000000  0.50000000  0.50000000  1
  O2-  O8  1  0.82718350  0.23335950  0.33160950  1
  O2-  O9  1  0.73335950  0.17281650  0.08160950  1
  O2-  O10  1  0.26664050  0.82718350  0.08160950  1
  O2-  O11  1  0.17281650  0.76664050  0.33160950  1
  O2-  O12  1  0.32718350  0.23335950  0.41839050  1
  O2-  O13  1  0.73335950  0.67281650  0.16839050  1
  O2-  O14  1  0.26664050  0.32718350  0.16839050  1
  O2-  O15  1  0.67281650  0.76664050  0.41839050  1
  O2-  O16  1  0.32718350  0.73335950  0.83160950  1
  O2-  O17  1  0.23335950  0.67281650  0.58160950  1
  O2-  O18  1  0.76664050  0.32718350  0.58160950  1
  O2-  O19  1  0.67281650  0.26664050  0.83160950  1
  O2-  O20  1  0.82718350  0.73335950  0.91839050  1
  O2-  O21  1  0.23335950  0.17281650  0.66839050  1
  O2-  O22  1  0.76664050  0.82718350  0.66839050  1
  O2-  O23  1  0.17281650  0.26664050  0.91839050  1
