# generated using pymatgen
data_ZrSiO4
_symmetry_space_group_name_H-M   'P 1'
_cell_length_a   6.70785200
_cell_length_b   6.70785200
_cell_length_c   6.04075200
_cell_angle_alpha   90.00000000
_cell_angle_beta   90.00000000
_cell_angle_gamma   90.00000000
_symmetry_Int_Tables_number   1
_chemical_formula_structural   ZrSiO4
_chemical_formula_sum   'Zr4 Si4 O16'
_cell_volume   271.80531831
_cell_formula_units_Z   4
loop_
 _symmetry_equiv_pos_site_id
 _symmetry_equiv_pos_as_xyz
  1  'x, y, z'
loop_
 _atom_type_symbol
 _atom_type_oxidation_number
  Zr4+  4.0
  Si4+  4.0
  O2-  -2.0
loop_
 _atom_site_type_symbol
 _atom_site_label
 _atom_site_symmetry_multiplicity
 _atom_site_fract_x
 _atom_site_fract_y
 _atom_site_fract_z
 _atom_site_occupancy
  Zr4+  Zr0  1  0.50000000  0.00000000  0.75000000  1
  Zr4+  Zr1  1  0.00000000  0.00000000  0.50000000  1
  Zr4+  Zr2  1  0.00000000  0.50000000  0.25000000  1
  Zr4+  Zr3  1  0.50000000  0.50000000  0.00000000  1
  Si4+  Si4  1  0.50000000  0.00000000  0.25000000  1
  Si4+  Si5  1  0.50000000  0.50000000  0.50000000  1
  Si4+  Si6  1  0.00000000  0.50000000  0.75000000  1
  Si4+  Si7  1  0.00000000  0.00000000  0.00000000  1
  O2-  O8  1  0.00000000  0.31681500  0.57007500  1
  O2-  O9  1  0.68318500  0.50000000  0.32007500  1
  O2-  O10  1  0.81681500  0.00000000  0.82007500  1
  O2-  O11  1  0.00000000  0.68318500  0.57007500  1
  O2-  O12  1  0.31681500  0.00000000  0.42992500  1
  O2-  O13  1  0.00000000  0.18318500  0.17992500  1
  O2-  O14  1  0.50000000  0.31681500  0.67992500  1
  O2-  O15  1  0.68318500  0.00000000  0.42992500  1
  O2-  O16  1  0.50000000  0.81681500  0.07007500  1
  O2-  O17  1  0.18318500  0.00000000  0.82007500  1
  O2-  O18  1  0.31681500  0.50000000  0.32007500  1
  O2-  O19  1  0.50000000  0.18318500  0.07007500  1
  O2-  O20  1  0.81681500  0.50000000  0.92992500  1
  O2-  O21  1  0.50000000  0.68318500  0.67992500  1
  O2-  O22  1  0.00000000  0.81681500  0.17992500  1
  O2-  O23  1  0.18318500  0.50000000  0.92992500  1
